FYI-1013827-3D
     RDKit          3D

112111  0  0  1  0  0  0  0  0999 V2000
   -6.9153    3.1290  -14.2289 C   0  0  0  0  0  0  0  0  0  0  0  0
   -7.4912    2.9230  -12.8392 C   0  0  0  0  0  0  0  0  0  0  0  0
   -7.2951    1.4818  -12.3771 C   0  0  0  0  0  0  0  0  0  0  0  0
   -7.8758    1.2739  -10.9804 C   0  0  0  0  0  0  0  0  0  0  0  0
   -7.6788   -0.1673  -10.5186 C   0  0  0  0  0  0  0  0  0  0  0  0
   -8.2461   -0.3823   -9.1488 C   0  0  0  0  0  0  0  0  0  0  0  0
   -7.4892   -0.7829   -8.1196 C   0  0  0  0  0  0  0  0  0  0  0  0
   -8.0283   -0.9902   -6.8026 C   0  0  0  0  0  0  0  0  0  0  0  0
   -7.2807   -1.3914   -5.7678 C   0  0  0  0  0  0  0  0  0  0  0  0
   -7.8511   -1.6072   -4.3989 C   0  0  0  0  0  0  0  0  0  0  0  0
   -7.6553   -3.0480   -3.9420 C   0  0  0  0  0  0  0  0  0  0  0  0
   -8.2389   -3.2567   -2.5479 C   0  0  0  0  0  0  0  0  0  0  0  0
   -8.0403   -4.7006   -2.1001 C   0  0  0  0  0  0  0  0  0  0  0  0
   -8.6202   -4.9245   -0.7089 C   0  0  0  0  0  0  0  0  0  0  0  0
   -8.4169   -6.3732   -0.2627 C   0  0  0  0  0  0  0  0  0  0  0  0
   -9.0017   -6.5859    1.1308 C   0  0  0  0  0  0  0  0  0  0  0  0
   -8.8308   -8.0191    1.6397 C   0  0  0  0  0  0  0  0  0  0  0  0
   -9.4420   -8.1432    3.0265 C   0  0  0  0  0  0  0  0  0  0  0  0
  -10.3970   -7.4945    3.4104 O   0  0  0  0  0  0  0  0  0  0  0  0
   -8.7838   -9.0885    3.7689 O   0  0  0  0  0  0  0  0  0  0  0  0
   -9.2673   -9.2630    5.1292 C   0  0  0  0  0  0  0  0  0  0  0  0
   -8.7437   -8.1659    6.0763 C   0  0  1  0  0  0  0  0  0  0  0  0
   -9.2816   -8.3974    7.4942 C   0  0  0  0  0  0  0  0  0  0  0  0
  -10.7030   -8.3636    7.4995 O   0  0  0  0  0  0  0  0  0  0  0  0
   -7.2983   -8.1660    6.1099 O   0  0  0  0  0  0  0  0  0  0  0  0
   -6.7205   -7.0036    5.6721 C   0  0  0  0  0  0  0  0  0  0  0  0
   -7.3289   -6.0025    5.3339 O   0  0  0  0  0  0  0  0  0  0  0  0
   -5.2063   -7.0692    5.7302 C   0  0  0  0  0  0  0  0  0  0  0  0
   -4.6445   -6.0001    6.6675 C   0  0  0  0  0  0  0  0  0  0  0  0
   -5.1402   -6.1644    8.1021 C   0  0  0  0  0  0  0  0  0  0  0  0
   -4.5590   -5.0736    8.9975 C   0  0  0  0  0  0  0  0  0  0  0  0
   -5.0532   -5.2318   10.4296 C   0  0  0  0  0  0  0  0  0  0  0  0
   -4.4733   -4.1447   11.3267 C   0  0  0  0  0  0  0  0  0  0  0  0
   -4.9748   -4.3106   12.7566 C   0  0  0  0  0  0  0  0  0  0  0  0
   -4.4005   -3.2271   13.6608 C   0  0  0  0  0  0  0  0  0  0  0  0
   -4.8916   -3.3893   15.0663 C   0  0  0  0  0  0  0  0  0  0  0  0
   -4.0585   -3.5904   16.0971 C   0  0  0  0  0  0  0  0  0  0  0  0
   -4.5140   -3.7505   17.4534 C   0  0  0  0  0  0  0  0  0  0  0  0
   -3.6766   -3.9504   18.4770 C   0  0  0  0  0  0  0  0  0  0  0  0
   -4.1601   -4.1145   19.8879 C   0  0  0  0  0  0  0  0  0  0  0  0
   -3.5835   -3.0325   20.7969 C   0  0  0  0  0  0  0  0  0  0  0  0
   -4.0819   -3.2016   22.2298 C   0  0  0  0  0  0  0  0  0  0  0  0
   -3.5042   -2.1222   23.1412 C   0  0  0  0  0  0  0  0  0  0  0  0
   -4.0021   -2.2935   24.5656 C   0  0  0  0  0  0  0  0  0  0  0  0
   -7.0606    4.1641  -14.5510 H   0  0  0  0  0  0  0  0  0  0  0  0
   -7.4058    2.4720  -14.9542 H   0  0  0  0  0  0  0  0  0  0  0  0
   -5.8422    2.9133  -14.2409 H   0  0  0  0  0  0  0  0  0  0  0  0
   -8.5591    3.1706  -12.8471 H   0  0  0  0  0  0  0  0  0  0  0  0
   -7.0036    3.6097  -12.1374 H   0  0  0  0  0  0  0  0  0  0  0  0
   -6.2255    1.2377  -12.3733 H   0  0  0  0  0  0  0  0  0  0  0  0
   -7.7797    0.7979  -13.0850 H   0  0  0  0  0  0  0  0  0  0  0  0
   -8.9446    1.5208  -10.9879 H   0  0  0  0  0  0  0  0  0  0  0  0
   -7.3903    1.9604  -10.2758 H   0  0  0  0  0  0  0  0  0  0  0  0
   -6.6087   -0.4077  -10.5231 H   0  0  0  0  0  0  0  0  0  0  0  0
   -8.1688   -0.8506  -11.2223 H   0  0  0  0  0  0  0  0  0  0  0  0
   -9.3110   -0.2014   -9.0132 H   0  0  0  0  0  0  0  0  0  0  0  0
   -6.4270   -0.9617   -8.2686 H   0  0  0  0  0  0  0  0  0  0  0  0
   -9.0909   -0.8085   -6.6642 H   0  0  0  0  0  0  0  0  0  0  0  0
   -6.2174   -1.5730   -5.9058 H   0  0  0  0  0  0  0  0  0  0  0  0
   -8.9215   -1.3666   -4.3972 H   0  0  0  0  0  0  0  0  0  0  0  0
   -7.3621   -0.9259   -3.6931 H   0  0  0  0  0  0  0  0  0  0  0  0
   -6.5863   -3.2945   -3.9314 H   0  0  0  0  0  0  0  0  0  0  0  0
   -8.1371   -3.7346   -4.6495 H   0  0  0  0  0  0  0  0  0  0  0  0
   -9.3085   -3.0122   -2.5506 H   0  0  0  0  0  0  0  0  0  0  0  0
   -7.7537   -2.5774   -1.8360 H   0  0  0  0  0  0  0  0  0  0  0  0
   -6.9704   -4.9415   -2.0971 H   0  0  0  0  0  0  0  0  0  0  0  0
   -8.5238   -5.3774   -2.8148 H   0  0  0  0  0  0  0  0  0  0  0  0
   -9.6903   -4.6819   -0.7131 H   0  0  0  0  0  0  0  0  0  0  0  0
   -8.1393   -4.2434    0.0044 H   0  0  0  0  0  0  0  0  0  0  0  0
   -7.3461   -6.6090   -0.2601 H   0  0  0  0  0  0  0  0  0  0  0  0
   -8.8992   -7.0484   -0.9801 H   0  0  0  0  0  0  0  0  0  0  0  0
  -10.0681   -6.3305    1.1115 H   0  0  0  0  0  0  0  0  0  0  0  0
   -8.5243   -5.8911    1.8318 H   0  0  0  0  0  0  0  0  0  0  0  0
   -7.7653   -8.2703    1.6837 H   0  0  0  0  0  0  0  0  0  0  0  0
   -9.3296   -8.7225    0.9639 H   0  0  0  0  0  0  0  0  0  0  0  0
   -8.9425  -10.2510    5.4725 H   0  0  0  0  0  0  0  0  0  0  0  0
  -10.3669   -9.2679    5.1201 H   0  0  0  0  0  0  0  0  0  0  0  0
   -9.1258   -7.2105    5.7022 H   0  0  0  0  0  0  0  0  0  0  0  0
   -8.9352   -7.6366    8.2028 H   0  0  0  0  0  0  0  0  0  0  0  0
   -8.9478   -9.3654    7.8856 H   0  0  0  0  0  0  0  0  0  0  0  0
  -10.9515   -7.4938    7.1391 H   0  0  0  0  0  0  0  0  0  0  0  0
   -4.8184   -6.9111    4.7162 H   0  0  0  0  0  0  0  0  0  0  0  0
   -4.8809   -8.0626    6.0564 H   0  0  0  0  0  0  0  0  0  0  0  0
   -4.9237   -5.0053    6.3001 H   0  0  0  0  0  0  0  0  0  0  0  0
   -3.5478   -6.0446    6.6602 H   0  0  0  0  0  0  0  0  0  0  0  0
   -4.8518   -7.1508    8.4861 H   0  0  0  0  0  0  0  0  0  0  0  0
   -6.2354   -6.1127    8.1308 H   0  0  0  0  0  0  0  0  0  0  0  0
   -4.8454   -4.0859    8.6157 H   0  0  0  0  0  0  0  0  0  0  0  0
   -3.4636   -5.1212    8.9783 H   0  0  0  0  0  0  0  0  0  0  0  0
   -4.7663   -6.2189   10.8128 H   0  0  0  0  0  0  0  0  0  0  0  0
   -6.1490   -5.1817   10.4505 H   0  0  0  0  0  0  0  0  0  0  0  0
   -4.7573   -3.1567   10.9440 H   0  0  0  0  0  0  0  0  0  0  0  0
   -3.3769   -4.1955   11.3106 H   0  0  0  0  0  0  0  0  0  0  0  0
   -4.6872   -5.3008   13.1324 H   0  0  0  0  0  0  0  0  0  0  0  0
   -6.0716   -4.2663   12.7694 H   0  0  0  0  0  0  0  0  0  0  0  0
   -4.6959   -2.2382   13.2879 H   0  0  0  0  0  0  0  0  0  0  0  0
   -3.3049   -3.2709   13.6353 H   0  0  0  0  0  0  0  0  0  0  0  0
   -5.9646   -3.3422   15.2312 H   0  0  0  0  0  0  0  0  0  0  0  0
   -2.9879   -3.6363   15.9148 H   0  0  0  0  0  0  0  0  0  0  0  0
   -5.5846   -3.7025   17.6456 H   0  0  0  0  0  0  0  0  0  0  0  0
   -2.6012   -4.0010   18.3129 H   0  0  0  0  0  0  0  0  0  0  0  0
   -3.8645   -5.1041   20.2555 H   0  0  0  0  0  0  0  0  0  0  0  0
   -5.2561   -4.0705   19.9163 H   0  0  0  0  0  0  0  0  0  0  0  0
   -3.8695   -2.0411   20.4237 H   0  0  0  0  0  0  0  0  0  0  0  0
   -2.4877   -3.0793   20.7824 H   0  0  0  0  0  0  0  0  0  0  0  0
   -3.7973   -4.1923   22.6056 H   0  0  0  0  0  0  0  0  0  0  0  0
   -5.1777   -3.1515   22.2479 H   0  0  0  0  0  0  0  0  0  0  0  0
   -3.7897   -1.1299   22.7727 H   0  0  0  0  0  0  0  0  0  0  0  0
   -2.4091   -2.1704   23.1301 H   0  0  0  0  0  0  0  0  0  0  0  0
   -5.0936   -2.2225   24.6072 H   0  0  0  0  0  0  0  0  0  0  0  0
   -3.5833   -1.5160   25.2109 H   0  0  0  0  0  0  0  0  0  0  0  0
   -3.7060   -3.2681   24.9665 H   0  0  0  0  0  0  0  0  0  0  0  0
  1  2  1  0
  1 45  1  0
  1 46  1  0
  1 47  1  0
  2  3  1  0
  2 48  1  0
  2 49  1  0
  3  4  1  0
  3 50  1  0
  3 51  1  0
  4  5  1  0
  4 52  1  0
  4 53  1  0
  5  6  1  0
  5 54  1  0
  5 55  1  0
  6  7  2  0
  6 56  1  0
  7  8  1  0
  7 57  1  0
  8  9  2  0
  8 58  1  0
  9 10  1  0
  9 59  1  0
 10 11  1  0
 10 60  1  0
 10 61  1  0
 11 12  1  0
 11 62  1  0
 11 63  1  0
 12 13  1  0
 12 64  1  0
 12 65  1  0
 13 14  1  0
 13 66  1  0
 13 67  1  0
 14 15  1  0
 14 68  1  0
 14 69  1  0
 15 16  1  0
 15 70  1  0
 15 71  1  0
 16 17  1  0
 16 72  1  0
 16 73  1  0
 17 18  1  0
 17 74  1  0
 17 75  1  0
 18 19  2  0
 18 20  1  0
 20 21  1  0
 21 22  1  0
 21 76  1  0
 21 77  1  0
 22 23  1  0
 22 25  1  0
 22 78  1  6
 23 24  1  0
 23 79  1  0
 23 80  1  0
 24 81  1  0
 25 26  1  0
 26 27  2  0
 26 28  1  0
 28 29  1  0
 28 82  1  0
 28 83  1  0
 29 30  1  0
 29 84  1  0
 29 85  1  0
 30 31  1  0
 30 86  1  0
 30 87  1  0
 31 32  1  0
 31 88  1  0
 31 89  1  0
 32 33  1  0
 32 90  1  0
 32 91  1  0
 33 34  1  0
 33 92  1  0
 33 93  1  0
 34 35  1  0
 34 94  1  0
 34 95  1  0
 35 36  1  0
 35 96  1  0
 35 97  1  0
 36 37  2  0
 36 98  1  0
 37 38  1  0
 37 99  1  0
 38 39  2  0
 38100  1  0
 39 40  1  0
 39101  1  0
 40 41  1  0
 40102  1  0
 40103  1  0
 41 42  1  0
 41104  1  0
 41105  1  0
 42 43  1  0
 42106  1  0
 42107  1  0
 43 44  1  0
 43108  1  0
 43109  1  0
 44110  1  0
 44111  1  0
 44112  1  0
M  END
$$$$
