FYI-1013827-3D
     RDKit          3D

112111  0  0  1  0  0  0  0  0999 V2000
   -2.8846   10.9694  -26.9876 C   0  0  0  0  0  0  0  0  0  0  0  0
   -3.4605   10.7634  -25.5979 C   0  0  0  0  0  0  0  0  0  0  0  0
   -3.2644    9.3222  -25.1358 C   0  0  0  0  0  0  0  0  0  0  0  0
   -3.8451    9.1143  -23.7391 C   0  0  0  0  0  0  0  0  0  0  0  0
   -3.6481    7.6731  -23.2773 C   0  0  0  0  0  0  0  0  0  0  0  0
   -4.2154    7.4581  -21.9075 C   0  0  0  0  0  0  0  0  0  0  0  0
   -3.4585    7.0575  -20.8783 C   0  0  0  0  0  0  0  0  0  0  0  0
   -3.9976    6.8502  -19.5613 C   0  0  0  0  0  0  0  0  0  0  0  0
   -3.2500    6.4490  -18.5265 C   0  0  0  0  0  0  0  0  0  0  0  0
   -3.8204    6.2332  -17.1576 C   0  0  0  0  0  0  0  0  0  0  0  0
   -3.6246    4.7924  -16.7007 C   0  0  0  0  0  0  0  0  0  0  0  0
   -4.2082    4.5837  -15.3066 C   0  0  0  0  0  0  0  0  0  0  0  0
   -4.0096    3.1398  -14.8588 C   0  0  0  0  0  0  0  0  0  0  0  0
   -4.5895    2.9159  -13.4676 C   0  0  0  0  0  0  0  0  0  0  0  0
   -4.3862    1.4672  -13.0214 C   0  0  0  0  0  0  0  0  0  0  0  0
   -4.9710    1.2545  -11.6279 C   0  0  0  0  0  0  0  0  0  0  0  0
   -4.8001   -0.1787  -11.1190 C   0  0  0  0  0  0  0  0  0  0  0  0
   -5.4113   -0.3028   -9.7322 C   0  0  0  0  0  0  0  0  0  0  0  0
   -6.3663    0.3459   -9.3483 O   0  0  0  0  0  0  0  0  0  0  0  0
   -4.7531   -1.2481   -8.9898 O   0  0  0  0  0  0  0  0  0  0  0  0
   -5.2366   -1.4226   -7.6295 C   0  0  0  0  0  0  0  0  0  0  0  0
   -4.7130   -0.3255   -6.6824 C   0  0  1  0  0  0  0  0  0  0  0  0
   -5.2509   -0.5570   -5.2645 C   0  0  0  0  0  0  0  0  0  0  0  0
   -6.6723   -0.5232   -5.2592 O   0  0  0  0  0  0  0  0  0  0  0  0
   -3.2676   -0.3256   -6.6488 O   0  0  0  0  0  0  0  0  0  0  0  0
   -2.6898    0.8368   -7.0866 C   0  0  0  0  0  0  0  0  0  0  0  0
   -3.2982    1.8379   -7.4248 O   0  0  0  0  0  0  0  0  0  0  0  0
   -1.1756    0.7712   -7.0285 C   0  0  0  0  0  0  0  0  0  0  0  0
   -0.6138    1.8403   -6.0912 C   0  0  0  0  0  0  0  0  0  0  0  0
   -1.1095    1.6760   -4.6566 C   0  0  0  0  0  0  0  0  0  0  0  0
   -0.5283    2.7668   -3.7612 C   0  0  0  0  0  0  0  0  0  0  0  0
   -1.0225    2.6086   -2.3291 C   0  0  0  0  0  0  0  0  0  0  0  0
   -0.4426    3.6957   -1.4320 C   0  0  0  0  0  0  0  0  0  0  0  0
   -0.9441    3.5298   -0.0021 C   0  0  0  0  0  0  0  0  0  0  0  0
   -0.3698    4.6133    0.9021 C   0  0  0  0  0  0  0  0  0  0  0  0
   -0.8609    4.4511    2.3076 C   0  0  0  0  0  0  0  0  0  0  0  0
   -0.0278    4.2500    3.3384 C   0  0  0  0  0  0  0  0  0  0  0  0
   -0.4833    4.0899    4.6947 C   0  0  0  0  0  0  0  0  0  0  0  0
    0.3541    3.8900    5.7183 C   0  0  0  0  0  0  0  0  0  0  0  0
   -0.1294    3.7259    7.1292 C   0  0  0  0  0  0  0  0  0  0  0  0
    0.4472    4.8079    8.0382 C   0  0  0  0  0  0  0  0  0  0  0  0
   -0.0512    4.6388    9.4711 C   0  0  0  0  0  0  0  0  0  0  0  0
    0.5265    5.7182   10.3825 C   0  0  0  0  0  0  0  0  0  0  0  0
    0.0286    5.5469   11.8069 C   0  0  0  0  0  0  0  0  0  0  0  0
   -3.0299   12.0045  -27.3097 H   0  0  0  0  0  0  0  0  0  0  0  0
   -3.3751   10.3124  -27.7129 H   0  0  0  0  0  0  0  0  0  0  0  0
   -1.8115   10.7537  -26.9996 H   0  0  0  0  0  0  0  0  0  0  0  0
   -4.5284   11.0110  -25.6058 H   0  0  0  0  0  0  0  0  0  0  0  0
   -2.9729   11.4501  -24.8961 H   0  0  0  0  0  0  0  0  0  0  0  0
   -2.1948    9.0781  -25.1320 H   0  0  0  0  0  0  0  0  0  0  0  0
   -3.7490    8.6383  -25.8437 H   0  0  0  0  0  0  0  0  0  0  0  0
   -4.9139    9.3612  -23.7466 H   0  0  0  0  0  0  0  0  0  0  0  0
   -3.3596    9.8008  -23.0345 H   0  0  0  0  0  0  0  0  0  0  0  0
   -2.5780    7.4327  -23.2818 H   0  0  0  0  0  0  0  0  0  0  0  0
   -4.1381    6.9898  -23.9810 H   0  0  0  0  0  0  0  0  0  0  0  0
   -5.2803    7.6390  -21.7719 H   0  0  0  0  0  0  0  0  0  0  0  0
   -2.3963    6.8787  -21.0273 H   0  0  0  0  0  0  0  0  0  0  0  0
   -5.0602    7.0319  -19.4229 H   0  0  0  0  0  0  0  0  0  0  0  0
   -2.1867    6.2674  -18.6645 H   0  0  0  0  0  0  0  0  0  0  0  0
   -4.8908    6.4738  -17.1559 H   0  0  0  0  0  0  0  0  0  0  0  0
   -3.3314    6.9145  -16.4518 H   0  0  0  0  0  0  0  0  0  0  0  0
   -2.5556    4.5459  -16.6901 H   0  0  0  0  0  0  0  0  0  0  0  0
   -4.1064    4.1058  -17.4082 H   0  0  0  0  0  0  0  0  0  0  0  0
   -5.2778    4.8282  -15.3093 H   0  0  0  0  0  0  0  0  0  0  0  0
   -3.7230    5.2630  -14.5947 H   0  0  0  0  0  0  0  0  0  0  0  0
   -2.9397    2.8989  -14.8558 H   0  0  0  0  0  0  0  0  0  0  0  0
   -4.4931    2.4630  -15.5735 H   0  0  0  0  0  0  0  0  0  0  0  0
   -5.6596    3.1585  -13.4718 H   0  0  0  0  0  0  0  0  0  0  0  0
   -4.1086    3.5970  -12.7543 H   0  0  0  0  0  0  0  0  0  0  0  0
   -3.3154    1.2314  -13.0188 H   0  0  0  0  0  0  0  0  0  0  0  0
   -4.8685    0.7920  -13.7388 H   0  0  0  0  0  0  0  0  0  0  0  0
   -6.0374    1.5099  -11.6472 H   0  0  0  0  0  0  0  0  0  0  0  0
   -4.4936    1.9493  -10.9269 H   0  0  0  0  0  0  0  0  0  0  0  0
   -3.7346   -0.4299  -11.0750 H   0  0  0  0  0  0  0  0  0  0  0  0
   -5.2989   -0.8821  -11.7948 H   0  0  0  0  0  0  0  0  0  0  0  0
   -4.9118   -2.4106   -7.2862 H   0  0  0  0  0  0  0  0  0  0  0  0
   -6.3362   -1.4275   -7.6386 H   0  0  0  0  0  0  0  0  0  0  0  0
   -5.0951    0.6299   -7.0565 H   0  0  0  0  0  0  0  0  0  0  0  0
   -4.9045    0.2038   -4.5559 H   0  0  0  0  0  0  0  0  0  0  0  0
   -4.9171   -1.5250   -4.8731 H   0  0  0  0  0  0  0  0  0  0  0  0
   -6.9208    0.3466   -5.6196 H   0  0  0  0  0  0  0  0  0  0  0  0
   -0.7877    0.9293   -8.0425 H   0  0  0  0  0  0  0  0  0  0  0  0
   -0.8502   -0.2222   -6.7023 H   0  0  0  0  0  0  0  0  0  0  0  0
   -0.8930    2.8351   -6.4586 H   0  0  0  0  0  0  0  0  0  0  0  0
    0.4829    1.7958   -6.0985 H   0  0  0  0  0  0  0  0  0  0  0  0
   -0.8211    0.6896   -4.2726 H   0  0  0  0  0  0  0  0  0  0  0  0
   -2.2047    1.7277   -4.6279 H   0  0  0  0  0  0  0  0  0  0  0  0
   -0.8147    3.7545   -4.1430 H   0  0  0  0  0  0  0  0  0  0  0  0
    0.5671    2.7192   -3.7804 H   0  0  0  0  0  0  0  0  0  0  0  0
   -0.7356    1.6215   -1.9459 H   0  0  0  0  0  0  0  0  0  0  0  0
   -2.1183    2.6587   -2.3082 H   0  0  0  0  0  0  0  0  0  0  0  0
   -0.7266    4.6837   -1.8147 H   0  0  0  0  0  0  0  0  0  0  0  0
    0.6538    3.6449   -1.4481 H   0  0  0  0  0  0  0  0  0  0  0  0
   -0.6565    2.5396    0.3737 H   0  0  0  0  0  0  0  0  0  0  0  0
   -2.0409    3.5741    0.0107 H   0  0  0  0  0  0  0  0  0  0  0  0
   -0.6652    5.6022    0.5292 H   0  0  0  0  0  0  0  0  0  0  0  0
    0.7258    4.5695    0.8766 H   0  0  0  0  0  0  0  0  0  0  0  0
   -1.9339    4.4982    2.4725 H   0  0  0  0  0  0  0  0  0  0  0  0
    1.0428    4.2041    3.1561 H   0  0  0  0  0  0  0  0  0  0  0  0
   -1.5539    4.1379    4.8869 H   0  0  0  0  0  0  0  0  0  0  0  0
    1.4295    3.8394    5.5542 H   0  0  0  0  0  0  0  0  0  0  0  0
    0.1662    2.7363    7.4968 H   0  0  0  0  0  0  0  0  0  0  0  0
   -1.2254    3.7699    7.1576 H   0  0  0  0  0  0  0  0  0  0  0  0
    0.1612    5.7993    7.6650 H   0  0  0  0  0  0  0  0  0  0  0  0
    1.5430    4.7611    8.0237 H   0  0  0  0  0  0  0  0  0  0  0  0
    0.2334    3.6481    9.8469 H   0  0  0  0  0  0  0  0  0  0  0  0
   -1.1470    4.6889    9.4892 H   0  0  0  0  0  0  0  0  0  0  0  0
    0.2410    6.7105   10.0140 H   0  0  0  0  0  0  0  0  0  0  0  0
    1.6216    5.6700   10.3714 H   0  0  0  0  0  0  0  0  0  0  0  0
   -1.0629    5.6179   11.8485 H   0  0  0  0  0  0  0  0  0  0  0  0
    0.4474    6.3244   12.4522 H   0  0  0  0  0  0  0  0  0  0  0  0
    0.3247    4.5723   12.2078 H   0  0  0  0  0  0  0  0  0  0  0  0
  1  2  1  0
  1 45  1  0
  1 46  1  0
  1 47  1  0
  2  3  1  0
  2 48  1  0
  2 49  1  0
  3  4  1  0
  3 50  1  0
  3 51  1  0
  4  5  1  0
  4 52  1  0
  4 53  1  0
  5  6  1  0
  5 54  1  0
  5 55  1  0
  6  7  2  0
  6 56  1  0
  7  8  1  0
  7 57  1  0
  8  9  2  0
  8 58  1  0
  9 10  1  0
  9 59  1  0
 10 11  1  0
 10 60  1  0
 10 61  1  0
 11 12  1  0
 11 62  1  0
 11 63  1  0
 12 13  1  0
 12 64  1  0
 12 65  1  0
 13 14  1  0
 13 66  1  0
 13 67  1  0
 14 15  1  0
 14 68  1  0
 14 69  1  0
 15 16  1  0
 15 70  1  0
 15 71  1  0
 16 17  1  0
 16 72  1  0
 16 73  1  0
 17 18  1  0
 17 74  1  0
 17 75  1  0
 18 19  2  0
 18 20  1  0
 20 21  1  0
 21 22  1  0
 21 76  1  0
 21 77  1  0
 22 23  1  0
 22 25  1  0
 22 78  1  6
 23 24  1  0
 23 79  1  0
 23 80  1  0
 24 81  1  0
 25 26  1  0
 26 27  2  0
 26 28  1  0
 28 29  1  0
 28 82  1  0
 28 83  1  0
 29 30  1  0
 29 84  1  0
 29 85  1  0
 30 31  1  0
 30 86  1  0
 30 87  1  0
 31 32  1  0
 31 88  1  0
 31 89  1  0
 32 33  1  0
 32 90  1  0
 32 91  1  0
 33 34  1  0
 33 92  1  0
 33 93  1  0
 34 35  1  0
 34 94  1  0
 34 95  1  0
 35 36  1  0
 35 96  1  0
 35 97  1  0
 36 37  2  0
 36 98  1  0
 37 38  1  0
 37 99  1  0
 38 39  2  0
 38100  1  0
 39 40  1  0
 39101  1  0
 40 41  1  0
 40102  1  0
 40103  1  0
 41 42  1  0
 41104  1  0
 41105  1  0
 42 43  1  0
 42106  1  0
 42107  1  0
 43 44  1  0
 43108  1  0
 43109  1  0
 44110  1  0
 44111  1  0
 44112  1  0
M  END
$$$$
