FYI-1013826-3D
  PyMOL3.1          3D                             0

158157  0  0  1  0  0  0  0  0999 V2000
    8.7359   -3.5922    2.0578 C   0  0  0  0  0  0  0  0  0  0  0  0
   10.1709   -3.5540    1.5648 C   0  0  0  0  0  0  0  0  0  0  0  0
   10.2362   -3.0438    0.1289 C   0  0  0  0  0  0  0  0  0  0  0  0
   11.6786   -3.0027   -0.3679 C   0  0  0  0  0  0  0  0  0  0  0  0
   11.7407   -2.4895   -1.8041 C   0  0  0  0  0  0  0  0  0  0  0  0
   13.1561   -2.4448   -2.2982 C   0  0  0  0  0  0  0  0  0  0  0  0
   13.7419   -1.3117   -2.7004 C   0  0  0  0  0  0  0  0  0  0  0  0
   15.0981   -1.2543   -3.1717 C   0  0  0  0  0  0  0  0  0  0  0  0
   15.6889   -0.1235   -3.5732 C   0  0  0  0  0  0  0  0  0  0  0  0
   17.1042   -0.0761   -4.0661 C   0  0  0  0  0  0  0  0  0  0  0  0
   17.1612    0.4334   -5.5008 C   0  0  0  0  0  0  0  0  0  0  0  0
   18.6017    0.4719   -5.9965 C   0  0  0  0  0  0  0  0  0  0  0  0
   18.6544    0.9785   -7.4307 C   0  0  0  0  0  0  0  0  0  0  0  0
   20.0917    1.0170   -7.9295 C   0  0  0  0  0  0  0  0  0  0  0  0
   20.1410    1.5248   -9.3631 C   0  0  0  0  0  0  0  0  0  0  0  0
   21.5832    1.5790   -9.8603 C   0  0  0  0  0  0  0  0  0  0  0  0
   21.6705    2.0992  -11.2889 C   0  0  0  0  0  0  0  0  0  0  0  0
   21.0955    3.4888  -11.4206 C   0  0  0  0  0  0  0  0  0  0  0  0
   20.1365    3.7591  -12.1328 O   0  0  0  0  0  0  0  0  0  0  0  0
   21.7752    4.3816  -10.6521 O   0  0  0  0  0  0  0  0  0  0  0  0
   21.2735    5.7264  -10.7027 C   0  0  0  0  0  0  0  0  0  0  0  0
   21.7828    6.4423  -11.9592 C   0  0  3  0  0  0  0  0  0  0  0  0
   21.2515    7.8855  -11.9673 C   0  0  0  0  0  0  0  0  0  0  0  0
   19.8032    7.9209  -11.9638 O   0  0  0  0  0  0  0  0  0  0  0  0
   19.1748    8.5495  -10.9265 C   0  0  0  0  0  0  0  0  0  0  0  0
   19.7347    9.0805   -9.9798 O   0  0  0  0  0  0  0  0  0  0  0  0
   17.6783    8.5377  -11.0834 C   0  0  0  0  0  0  0  0  0  0  0  0
   17.1728    9.9738  -11.1245 C   0  0  0  0  0  0  0  0  0  0  0  0
   15.6546   10.0424  -11.2392 C   0  0  0  0  0  0  0  0  0  0  0  0
   15.1894   11.4959  -11.2820 C   0  0  0  0  0  0  0  0  0  0  0  0
   13.6722   11.5748  -11.3987 C   0  0  0  0  0  0  0  0  0  0  0  0
   13.2103   13.0285  -11.4452 C   0  0  0  0  0  0  0  0  0  0  0  0
   11.6913   13.1057  -11.5653 C   0  0  0  0  0  0  0  0  0  0  0  0
   11.2222   14.5288  -11.6167 C   0  0  0  0  0  0  0  0  0  0  0  0
   10.5409   15.0282  -12.6564 C   0  0  0  0  0  0  0  0  0  0  0  0
   10.0957   16.3959  -12.6986 C   0  0  0  0  0  0  0  0  0  0  0  0
    9.4168   16.8990  -13.7379 C   0  0  0  0  0  0  0  0  0  0  0  0
    8.9467   18.3239  -13.7887 C   0  0  0  0  0  0  0  0  0  0  0  0
    7.4291   18.3959  -13.9078 C   0  0  0  0  0  0  0  0  0  0  0  0
    6.9634   19.8481  -13.9571 C   0  0  0  0  0  0  0  0  0  0  0  0
    5.4451   19.9280  -14.0788 C   0  0  0  0  0  0  0  0  0  0  0  0
    4.9844   21.3735  -14.1280 C   0  0  0  0  0  0  0  0  0  0  0  0
   23.2441    6.4520  -11.9757 O   0  0  0  0  0  0  0  0  0  0  0  0
   23.8540    5.8375  -13.0213 C   0  0  0  0  0  0  0  0  0  0  0  0
   23.3161    5.2996  -13.9867 O   0  0  0  0  0  0  0  0  0  0  0  0
   25.3677    5.9143  -12.9291 C   0  0  0  0  0  0  0  0  0  0  0  0
   25.9495    6.6255  -14.1495 C   0  0  0  0  0  0  0  0  0  0  0  0
   25.4716    8.0712  -14.2346 C   0  0  0  0  0  0  0  0  0  0  0  0
   26.0542    8.7637  -15.4583 C   0  0  0  0  0  0  0  0  0  0  0  0
   25.5603   10.2018  -15.5317 C   0  0  0  0  0  0  0  0  0  0  0  0
   26.1395   10.9052  -16.7507 C   0  0  0  0  0  0  0  0  0  0  0  0
   25.6434   12.3449  -16.8176 C   0  0  0  0  0  0  0  0  0  0  0  0
   26.2209   13.0527  -18.0377 C   0  0  0  0  0  0  0  0  0  0  0  0
   25.7397   14.4693  -18.1143 C   0  0  0  0  0  0  0  0  0  0  0  0
   25.0359   14.9383  -19.1543 C   0  0  0  0  0  0  0  0  0  0  0  0
   24.5646   16.2953  -19.2315 C   0  0  0  0  0  0  0  0  0  0  0  0
   23.8629   16.7622  -20.2741 C   0  0  0  0  0  0  0  0  0  0  0  0
   23.3715   18.1769  -20.3483 C   0  0  0  0  0  0  0  0  0  0  0  0
   21.8502   18.2245  -20.4518 C   0  0  0  0  0  0  0  0  0  0  0  0
   21.3608   19.6678  -20.5243 C   0  0  0  0  0  0  0  0  0  0  0  0
   19.8404   19.7202  -20.6294 C   0  0  0  0  0  0  0  0  0  0  0  0
   19.3553   21.1565  -20.7018 C   0  0  0  0  0  0  0  0  0  0  0  0
    8.6972   -3.9589    3.0874 H   0  0  0  0  0  0  0  0  0  0  0  0
    8.1286   -4.2555    1.4336 H   0  0  0  0  0  0  0  0  0  0  0  0
    8.2899   -2.5929    2.0319 H   0  0  0  0  0  0  0  0  0  0  0  0
   10.6042   -4.5593    1.6239 H   0  0  0  0  0  0  0  0  0  0  0  0
   10.7645   -2.9049    2.2192 H   0  0  0  0  0  0  0  0  0  0  0  0
    9.7967   -2.0401    0.0731 H   0  0  0  0  0  0  0  0  0  0  0  0
    9.6389   -3.6939   -0.5223 H   0  0  0  0  0  0  0  0  0  0  0  0
   12.1155   -4.0076   -0.3084 H   0  0  0  0  0  0  0  0  0  0  0  0
   12.2736   -2.3534    0.2869 H   0  0  0  0  0  0  0  0  0  0  0  0
   11.2812   -1.4953   -1.8559 H   0  0  0  0  0  0  0  0  0  0  0  0
   11.1576   -3.1458   -2.4608 H   0  0  0  0  0  0  0  0  0  0  0  0
   13.6931   -3.3903   -2.3180 H   0  0  0  0  0  0  0  0  0  0  0  0
   13.1792   -0.3763   -2.6740 H   0  0  0  0  0  0  0  0  0  0  0  0
   15.6565   -2.1904   -3.1974 H   0  0  0  0  0  0  0  0  0  0  0  0
   15.1424    0.8190   -3.5513 H   0  0  0  0  0  0  0  0  0  0  0  0
   17.5626   -1.0712   -4.0148 H   0  0  0  0  0  0  0  0  0  0  0  0
   17.6884    0.5800   -3.4110 H   0  0  0  0  0  0  0  0  0  0  0  0
   16.7249    1.4385   -5.5622 H   0  0  0  0  0  0  0  0  0  0  0  0
   16.5655   -0.2163   -6.1550 H   0  0  0  0  0  0  0  0  0  0  0  0
   19.0426   -0.5312   -5.9421 H   0  0  0  0  0  0  0  0  0  0  0  0
   19.2013    1.1246   -5.3501 H   0  0  0  0  0  0  0  0  0  0  0  0
   18.2147    1.9821   -7.4858 H   0  0  0  0  0  0  0  0  0  0  0  0
   18.0551    0.3263   -8.0776 H   0  0  0  0  0  0  0  0  0  0  0  0
   20.5324    0.0145   -7.8744 H   0  0  0  0  0  0  0  0  0  0  0  0
   20.6898    1.6718   -7.2836 H   0  0  0  0  0  0  0  0  0  0  0  0
   19.6861    2.5217   -9.4044 H   0  0  0  0  0  0  0  0  0  0  0  0
   19.5448    0.8715  -10.0122 H   0  0  0  0  0  0  0  0  0  0  0  0
   22.0217    0.5750   -9.8160 H   0  0  0  0  0  0  0  0  0  0  0  0
   22.1766    2.2171   -9.1954 H   0  0  0  0  0  0  0  0  0  0  0  0
   21.1167    1.4345  -11.9623 H   0  0  0  0  0  0  0  0  0  0  0  0
   22.7096    2.1094  -11.6334 H   0  0  0  0  0  0  0  0  0  0  0  0
   21.6169    6.2367   -9.7957 H   0  0  0  0  0  0  0  0  0  0  0  0
   20.1766    5.7202  -10.6634 H   0  0  0  0  0  0  0  0  0  0  0  0
   21.3974    5.9218  -12.8403 H   0  0  0  0  0  0  0  0  0  0  0  0
   21.5923    8.4082  -12.8715 H   0  0  0  0  0  0  0  0  0  0  0  0
   21.6627    8.4469  -11.1200 H   0  0  0  0  0  0  0  0  0  0  0  0
   17.2554    7.9983  -10.2315 H   0  0  0  0  0  0  0  0  0  0  0  0
   17.3820    7.9973  -11.9935 H   0  0  0  0  0  0  0  0  0  0  0  0
   17.6320   10.5025  -11.9706 H   0  0  0  0  0  0  0  0  0  0  0  0
   17.4895   10.5069  -10.2179 H   0  0  0  0  0  0  0  0  0  0  0  0
   15.1921    9.5331  -10.3851 H   0  0  0  0  0  0  0  0  0  0  0  0
   15.3259    9.5227  -12.1464 H   0  0  0  0  0  0  0  0  0  0  0  0
   15.6526   12.0081  -12.1343 H   0  0  0  0  0  0  0  0  0  0  0  0
   15.5174   12.0184  -10.3747 H   0  0  0  0  0  0  0  0  0  0  0  0
   13.2092   11.0648  -10.5450 H   0  0  0  0  0  0  0  0  0  0  0  0
   13.3448   11.0512  -12.3054 H   0  0  0  0  0  0  0  0  0  0  0  0
   13.6803   13.5356  -12.2976 H   0  0  0  0  0  0  0  0  0  0  0  0
   13.5433   13.5485  -10.5380 H   0  0  0  0  0  0  0  0  0  0  0  0
   11.2237   12.6096  -10.7070 H   0  0  0  0  0  0  0  0  0  0  0  0
   11.3705   12.5621  -12.4626 H   0  0  0  0  0  0  0  0  0  0  0  0
   11.4562   15.1614  -10.7640 H   0  0  0  0  0  0  0  0  0  0  0  0
   10.3078   14.3975  -13.5055 H   0  0  0  0  0  0  0  0  0  0  0  0
   10.3358   17.0220  -11.8444 H   0  0  0  0  0  0  0  0  0  0  0  0
    9.1861   16.2671  -14.5900 H   0  0  0  0  0  0  0  0  0  0  0  0
    9.4162   18.8174  -14.6438 H   0  0  0  0  0  0  0  0  0  0  0  0
    9.2693   18.8645  -12.8894 H   0  0  0  0  0  0  0  0  0  0  0  0
    6.9605   17.8894  -13.0546 H   0  0  0  0  0  0  0  0  0  0  0  0
    7.0976   17.8734  -14.8143 H   0  0  0  0  0  0  0  0  0  0  0  0
    7.4299   20.3579  -14.8092 H   0  0  0  0  0  0  0  0  0  0  0  0
    7.2893   20.3726  -13.0501 H   0  0  0  0  0  0  0  0  0  0  0  0
    4.9750   19.4239  -13.2263 H   0  0  0  0  0  0  0  0  0  0  0  0
    5.1155   19.4088  -14.9863 H   0  0  0  0  0  0  0  0  0  0  0  0
    5.2808   21.9065  -13.2189 H   0  0  0  0  0  0  0  0  0  0  0  0
    3.8954   21.4227  -14.2155 H   0  0  0  0  0  0  0  0  0  0  0  0
    5.4221   21.8912  -14.9875 H   0  0  0  0  0  0  0  0  0  0  0  0
   25.7444    4.8842  -12.8976 H   0  0  0  0  0  0  0  0  0  0  0  0
   25.6864    6.4020  -12.0053 H   0  0  0  0  0  0  0  0  0  0  0  0
   25.6665    6.0934  -15.0674 H   0  0  0  0  0  0  0  0  0  0  0  0
   27.0450    6.6035  -14.0984 H   0  0  0  0  0  0  0  0  0  0  0  0
   25.7632    8.6103  -13.3254 H   0  0  0  0  0  0  0  0  0  0  0  0
   24.3771    8.1047  -14.2937 H   0  0  0  0  0  0  0  0  0  0  0  0
   25.7601    8.2246  -16.3674 H   0  0  0  0  0  0  0  0  0  0  0  0
   27.1494    8.7476  -15.4103 H   0  0  0  0  0  0  0  0  0  0  0  0
   25.8499   10.7394  -14.6204 H   0  0  0  0  0  0  0  0  0  0  0  0
   24.4644   10.2160  -15.5813 H   0  0  0  0  0  0  0  0  0  0  0  0
   25.8490   10.3671  -17.6615 H   0  0  0  0  0  0  0  0  0  0  0  0
   27.2352   10.8899  -16.7011 H   0  0  0  0  0  0  0  0  0  0  0  0
   25.9323   12.8753  -15.9013 H   0  0  0  0  0  0  0  0  0  0  0  0
   24.5467   12.3533  -16.8620 H   0  0  0  0  0  0  0  0  0  0  0  0
   25.9439   12.5002  -18.9438 H   0  0  0  0  0  0  0  0  0  0  0  0
   27.3157   13.0539  -17.9855 H   0  0  0  0  0  0  0  0  0  0  0  0
   25.9826   15.1170  -17.2746 H   0  0  0  0  0  0  0  0  0  0  0  0
   24.7989   14.2717  -19.9806 H   0  0  0  0  0  0  0  0  0  0  0  0
   24.7900   16.9588  -18.3986 H   0  0  0  0  0  0  0  0  0  0  0  0
   23.6228   16.1146  -21.1155 H   0  0  0  0  0  0  0  0  0  0  0  0
   23.8224   18.6618  -21.2218 H   0  0  0  0  0  0  0  0  0  0  0  0
   23.6944   18.7434  -19.4662 H   0  0  0  0  0  0  0  0  0  0  0  0
   21.4002   17.7276  -19.5828 H   0  0  0  0  0  0  0  0  0  0  0  0
   21.5173   17.6786  -21.3435 H   0  0  0  0  0  0  0  0  0  0  0  0
   21.8093   20.1674  -21.3920 H   0  0  0  0  0  0  0  0  0  0  0  0
   21.6890   20.2155  -19.6320 H   0  0  0  0  0  0  0  0  0  0  0  0
   19.3889   19.2256  -19.7614 H   0  0  0  0  0  0  0  0  0  0  0  0
   19.5091   19.1773  -21.5223 H   0  0  0  0  0  0  0  0  0  0  0  0
   19.6534   21.7124  -19.8072 H   0  0  0  0  0  0  0  0  0  0  0  0
   18.2647   21.1860  -20.7771 H   0  0  0  0  0  0  0  0  0  0  0  0
   19.7743   21.6639  -21.5767 H   0  0  0  0  0  0  0  0  0  0  0  0
  1  2  1  0  0  0  0
  1 63  1  0  0  0  0
  1 64  1  0  0  0  0
  1 65  1  0  0  0  0
  2  3  1  0  0  0  0
  2 66  1  0  0  0  0
  2 67  1  0  0  0  0
  3  4  1  0  0  0  0
  3 68  1  0  0  0  0
  3 69  1  0  0  0  0
  4  5  1  0  0  0  0
  4 70  1  0  0  0  0
  4 71  1  0  0  0  0
  5  6  1  0  0  0  0
  5 72  1  0  0  0  0
  5 73  1  0  0  0  0
  6  7  2  0  0  0  0
  6 74  1  0  0  0  0
  7  8  1  0  0  0  0
  7 75  1  0  0  0  0
  8  9  2  0  0  0  0
  8 76  1  0  0  0  0
  9 10  1  0  0  0  0
  9 77  1  0  0  0  0
 10 11  1  0  0  0  0
 10 78  1  0  0  0  0
 10 79  1  0  0  0  0
 11 12  1  0  0  0  0
 11 80  1  0  0  0  0
 11 81  1  0  0  0  0
 12 13  1  0  0  0  0
 12 82  1  0  0  0  0
 12 83  1  0  0  0  0
 13 14  1  0  0  0  0
 13 84  1  0  0  0  0
 13 85  1  0  0  0  0
 14 15  1  0  0  0  0
 14 86  1  0  0  0  0
 14 87  1  0  0  0  0
 15 16  1  0  0  0  0
 15 88  1  0  0  0  0
 15 89  1  0  0  0  0
 16 17  1  0  0  0  0
 16 90  1  0  0  0  0
 16 91  1  0  0  0  0
 17 18  1  0  0  0  0
 17 92  1  0  0  0  0
 17 93  1  0  0  0  0
 18 19  2  0  0  0  0
 18 20  1  0  0  0  0
 20 21  1  0  0  0  0
 21 22  1  0  0  0  0
 21 94  1  0  0  0  0
 21 95  1  0  0  0  0
 22 23  1  0  0  0  0
 22 43  1  0  0  0  0
 22 96  1  0  0  0  0
 23 24  1  0  0  0  0
 23 97  1  0  0  0  0
 23 98  1  0  0  0  0
 24 25  1  0  0  0  0
 25 26  2  0  0  0  0
 25 27  1  0  0  0  0
 27 28  1  0  0  0  0
 27 99  1  0  0  0  0
 27100  1  0  0  0  0
 28 29  1  0  0  0  0
 28101  1  0  0  0  0
 28102  1  0  0  0  0
 29 30  1  0  0  0  0
 29103  1  0  0  0  0
 29104  1  0  0  0  0
 30 31  1  0  0  0  0
 30105  1  0  0  0  0
 30106  1  0  0  0  0
 31 32  1  0  0  0  0
 31107  1  0  0  0  0
 31108  1  0  0  0  0
 32 33  1  0  0  0  0
 32109  1  0  0  0  0
 32110  1  0  0  0  0
 33 34  1  0  0  0  0
 33111  1  0  0  0  0
 33112  1  0  0  0  0
 34 35  2  0  0  0  0
 34113  1  0  0  0  0
 35 36  1  0  0  0  0
 35114  1  0  0  0  0
 36 37  2  0  0  0  0
 36115  1  0  0  0  0
 37 38  1  0  0  0  0
 37116  1  0  0  0  0
 38 39  1  0  0  0  0
 38117  1  0  0  0  0
 38118  1  0  0  0  0
 39 40  1  0  0  0  0
 39119  1  0  0  0  0
 39120  1  0  0  0  0
 40 41  1  0  0  0  0
 40121  1  0  0  0  0
 40122  1  0  0  0  0
 41 42  1  0  0  0  0
 41123  1  0  0  0  0
 41124  1  0  0  0  0
 42125  1  0  0  0  0
 42126  1  0  0  0  0
 42127  1  0  0  0  0
 43 44  1  0  0  0  0
 44 45  2  0  0  0  0
 44 46  1  0  0  0  0
 46 47  1  0  0  0  0
 46128  1  0  0  0  0
 46129  1  0  0  0  0
 47 48  1  0  0  0  0
 47130  1  0  0  0  0
 47131  1  0  0  0  0
 48 49  1  0  0  0  0
 48132  1  0  0  0  0
 48133  1  0  0  0  0
 49 50  1  0  0  0  0
 49134  1  0  0  0  0
 49135  1  0  0  0  0
 50 51  1  0  0  0  0
 50136  1  0  0  0  0
 50137  1  0  0  0  0
 51 52  1  0  0  0  0
 51138  1  0  0  0  0
 51139  1  0  0  0  0
 52 53  1  0  0  0  0
 52140  1  0  0  0  0
 52141  1  0  0  0  0
 53 54  1  0  0  0  0
 53142  1  0  0  0  0
 53143  1  0  0  0  0
 54 55  2  0  0  0  0
 54144  1  0  0  0  0
 55 56  1  0  0  0  0
 55145  1  0  0  0  0
 56 57  2  0  0  0  0
 56146  1  0  0  0  0
 57 58  1  0  0  0  0
 57147  1  0  0  0  0
 58 59  1  0  0  0  0
 58148  1  0  0  0  0
 58149  1  0  0  0  0
 59 60  1  0  0  0  0
 59150  1  0  0  0  0
 59151  1  0  0  0  0
 60 61  1  0  0  0  0
 60152  1  0  0  0  0
 60153  1  0  0  0  0
 61 62  1  0  0  0  0
 61154  1  0  0  0  0
 61155  1  0  0  0  0
 62156  1  0  0  0  0
 62157  1  0  0  0  0
 62158  1  0  0  0  0
M  END
$$$$
