FYI-1013826-3D
     RDKit          3D

158157  0  0  1  0  0  0  0  0999 V2000
   -5.1476    3.3807   23.8323 C   0  0  0  0  0  0  0  0  0  0  0  0
   -4.9065    2.6730   22.5114 C   0  0  0  0  0  0  0  0  0  0  0  0
   -4.8090    3.6785   21.3687 C   0  0  0  0  0  0  0  0  0  0  0  0
   -4.5644    2.9688   20.0400 C   0  0  0  0  0  0  0  0  0  0  0  0
   -4.4650    3.9779   18.8991 C   0  0  0  0  0  0  0  0  0  0  0  0
   -4.2227    3.2871   17.5900 C   0  0  0  0  0  0  0  0  0  0  0  0
   -3.1379    3.5208   16.8435 C   0  0  0  0  0  0  0  0  0  0  0  0
   -2.8916    2.8628   15.5901 C   0  0  0  0  0  0  0  0  0  0  0  0
   -1.8075    3.0918   14.8409 C   0  0  0  0  0  0  0  0  0  0  0  0
   -1.5624    2.4013   13.5327 C   0  0  0  0  0  0  0  0  0  0  0  0
   -1.4672    3.4117   12.3965 C   0  0  0  0  0  0  0  0  0  0  0  0
   -1.2252    2.7018   11.0699 C   0  0  0  0  0  0  0  0  0  0  0  0
   -1.1336    3.7140    9.9371 C   0  0  0  0  0  0  0  0  0  0  0  0
   -0.8932    3.0082    8.6103 C   0  0  0  0  0  0  0  0  0  0  0  0
   -0.8011    4.0229    7.4801 C   0  0  0  0  0  0  0  0  0  0  0  0
   -0.5445    3.3183    6.1505 C   0  0  0  0  0  0  0  0  0  0  0  0
   -0.4305    4.3074    4.9982 C   0  0  0  0  0  0  0  0  0  0  0  0
    0.6920    5.2945    5.2096 C   0  0  0  0  0  0  0  0  0  0  0  0
    0.5211    6.5039    5.2985 O   0  0  0  0  0  0  0  0  0  0  0  0
    1.8960    4.6669    5.2883 O   0  0  0  0  0  0  0  0  0  0  0  0
    3.0163    5.5367    5.5140 C   0  0  0  0  0  0  0  0  0  0  0  0
    3.4601    6.1920    4.2008 C   0  0  1  0  0  0  0  0  0  0  0  0
    4.6768    7.0925    4.4729 C   0  0  0  0  0  0  0  0  0  0  0  0
    4.3669    8.1324    5.4329 O   0  0  0  0  0  0  0  0  0  0  0  0
    5.0878    8.1769    6.5923 C   0  0  0  0  0  0  0  0  0  0  0  0
    5.9750    7.3968    6.9020 O   0  0  0  0  0  0  0  0  0  0  0  0
    4.6786    9.3311    7.4667 C   0  0  0  0  0  0  0  0  0  0  0  0
    5.8857   10.2307    7.6974 C   0  0  0  0  0  0  0  0  0  0  0  0
    5.5578   11.4036    8.6136 C   0  0  0  0  0  0  0  0  0  0  0  0
    6.7903   12.2818    8.8154 C   0  0  0  0  0  0  0  0  0  0  0  0
    6.4717   13.4590    9.7289 C   0  0  0  0  0  0  0  0  0  0  0  0
    7.7041   14.3372    9.9258 C   0  0  0  0  0  0  0  0  0  0  0  0
    7.3825   15.5170   10.8381 C   0  0  0  0  0  0  0  0  0  0  0  0
    8.5834   16.3923   11.0376 C   0  0  0  0  0  0  0  0  0  0  0  0
    8.6022   17.6848   10.6861 C   0  0  0  0  0  0  0  0  0  0  0  0
    9.7596   18.5177   10.8795 C   0  0  0  0  0  0  0  0  0  0  0  0
    9.7825   19.8096   10.5265 C   0  0  0  0  0  0  0  0  0  0  0  0
   10.9849   20.6859   10.7270 C   0  0  0  0  0  0  0  0  0  0  0  0
   10.6591   21.8623   11.6394 C   0  0  0  0  0  0  0  0  0  0  0  0
   11.8884   22.7443   11.8367 C   0  0  0  0  0  0  0  0  0  0  0  0
   11.5691   23.9256   12.7472 C   0  0  0  0  0  0  0  0  0  0  0  0
   12.7935   24.8016   12.9417 C   0  0  0  0  0  0  0  0  0  0  0  0
    3.8115    5.1670    3.2202 O   0  0  0  0  0  0  0  0  0  0  0  0
    3.0970    5.1457    2.0661 C   0  0  0  0  0  0  0  0  0  0  0  0
    2.2035    5.9190    1.7282 O   0  0  0  0  0  0  0  0  0  0  0  0
    3.5532    4.0417    1.1286 C   0  0  0  0  0  0  0  0  0  0  0  0
    4.0197    4.6220   -0.2053 C   0  0  0  0  0  0  0  0  0  0  0  0
    5.2303    5.5320   -0.0263 C   0  0  0  0  0  0  0  0  0  0  0  0
    5.6786    6.1070   -1.3623 C   0  0  0  0  0  0  0  0  0  0  0  0
    6.8815    7.0186   -1.1636 C   0  0  0  0  0  0  0  0  0  0  0  0
    7.3405    7.5971   -2.4943 C   0  0  0  0  0  0  0  0  0  0  0  0
    8.5461    8.5068   -2.2894 C   0  0  0  0  0  0  0  0  0  0  0  0
    9.0085    9.0888   -3.6201 C   0  0  0  0  0  0  0  0  0  0  0  0
   10.1935    9.9855   -3.4310 C   0  0  0  0  0  0  0  0  0  0  0  0
   10.1785   11.2833   -3.7663 C   0  0  0  0  0  0  0  0  0  0  0  0
   11.3102   12.1521   -3.5812 C   0  0  0  0  0  0  0  0  0  0  0  0
   11.2930   13.4492   -3.9197 C   0  0  0  0  0  0  0  0  0  0  0  0
   12.4745   14.3511   -3.7221 C   0  0  0  0  0  0  0  0  0  0  0  0
   12.1294   15.5119   -2.7943 C   0  0  0  0  0  0  0  0  0  0  0  0
   13.3384   16.4216   -2.5982 C   0  0  0  0  0  0  0  0  0  0  0  0
   12.9976   17.5845   -1.6725 C   0  0  0  0  0  0  0  0  0  0  0  0
   14.2011   18.4886   -1.4788 C   0  0  0  0  0  0  0  0  0  0  0  0
   -5.2164    2.6536   24.6463 H   0  0  0  0  0  0  0  0  0  0  0  0
   -6.0810    3.9519   23.8018 H   0  0  0  0  0  0  0  0  0  0  0  0
   -4.3293    4.0721   24.0572 H   0  0  0  0  0  0  0  0  0  0  0  0
   -5.7243    1.9684   22.3200 H   0  0  0  0  0  0  0  0  0  0  0  0
   -3.9813    2.0881   22.5743 H   0  0  0  0  0  0  0  0  0  0  0  0
   -3.9932    4.3849   21.5668 H   0  0  0  0  0  0  0  0  0  0  0  0
   -5.7351    4.2637   21.3108 H   0  0  0  0  0  0  0  0  0  0  0  0
   -5.3809    2.2616   19.8465 H   0  0  0  0  0  0  0  0  0  0  0  0
   -3.6386    2.3828   20.1022 H   0  0  0  0  0  0  0  0  0  0  0  0
   -3.6617    4.6927   19.1138 H   0  0  0  0  0  0  0  0  0  0  0  0
   -5.3950    4.5541   18.8279 H   0  0  0  0  0  0  0  0  0  0  0  0
   -4.9818    2.5781   17.2679 H   0  0  0  0  0  0  0  0  0  0  0  0
   -2.3924    4.2405   17.1881 H   0  0  0  0  0  0  0  0  0  0  0  0
   -3.6385    2.1455   15.2489 H   0  0  0  0  0  0  0  0  0  0  0  0
   -1.0529    3.8052   15.1710 H   0  0  0  0  0  0  0  0  0  0  0  0
   -2.3670    1.6873   13.3183 H   0  0  0  0  0  0  0  0  0  0  0  0
   -0.6328    1.8252   13.6020 H   0  0  0  0  0  0  0  0  0  0  0  0
   -0.6509    4.1197   12.5881 H   0  0  0  0  0  0  0  0  0  0  0  0
   -2.3934    3.9977   12.3352 H   0  0  0  0  0  0  0  0  0  0  0  0
   -2.0405    1.9955   10.8699 H   0  0  0  0  0  0  0  0  0  0  0  0
   -0.2975    2.1188   11.1227 H   0  0  0  0  0  0  0  0  0  0  0  0
   -0.3178    4.4200   10.1358 H   0  0  0  0  0  0  0  0  0  0  0  0
   -2.0610    4.2972    9.8837 H   0  0  0  0  0  0  0  0  0  0  0  0
   -1.7078    2.3018    8.4109 H   0  0  0  0  0  0  0  0  0  0  0  0
    0.0360    2.4274    8.6636 H   0  0  0  0  0  0  0  0  0  0  0  0
    0.0086    4.7290    7.6995 H   0  0  0  0  0  0  0  0  0  0  0  0
   -1.7294    4.6048    7.4231 H   0  0  0  0  0  0  0  0  0  0  0  0
   -1.3640    2.6195    5.9446 H   0  0  0  0  0  0  0  0  0  0  0  0
    0.3732    2.7233    6.2219 H   0  0  0  0  0  0  0  0  0  0  0  0
   -1.3660    4.8698    4.8956 H   0  0  0  0  0  0  0  0  0  0  0  0
   -0.2687    3.7810    4.0520 H   0  0  0  0  0  0  0  0  0  0  0  0
    3.8220    4.9270    5.9384 H   0  0  0  0  0  0  0  0  0  0  0  0
    2.7609    6.2902    6.2701 H   0  0  0  0  0  0  0  0  0  0  0  0
    2.6421    6.8122    3.8240 H   0  0  0  0  0  0  0  0  0  0  0  0
    4.9970    7.5851    3.5445 H   0  0  0  0  0  0  0  0  0  0  0  0
    5.5298    6.4891    4.8052 H   0  0  0  0  0  0  0  0  0  0  0  0
    4.3090    8.9226    8.4112 H   0  0  0  0  0  0  0  0  0  0  0  0
    3.8552    9.8984    7.0103 H   0  0  0  0  0  0  0  0  0  0  0  0
    6.2556   10.6061    6.7338 H   0  0  0  0  0  0  0  0  0  0  0  0
    6.7062    9.6484    8.1381 H   0  0  0  0  0  0  0  0  0  0  0  0
    5.2075   11.0327    9.5844 H   0  0  0  0  0  0  0  0  0  0  0  0
    4.7469   11.9996    8.1797 H   0  0  0  0  0  0  0  0  0  0  0  0
    7.1440   12.6522    7.8454 H   0  0  0  0  0  0  0  0  0  0  0  0
    7.6037   11.6873    9.2497 H   0  0  0  0  0  0  0  0  0  0  0  0
    6.1204   13.0884   10.6998 H   0  0  0  0  0  0  0  0  0  0  0  0
    5.6575   14.0524    9.2948 H   0  0  0  0  0  0  0  0  0  0  0  0
    8.0547   14.7009    8.9514 H   0  0  0  0  0  0  0  0  0  0  0  0
    8.5164   13.7382   10.3568 H   0  0  0  0  0  0  0  0  0  0  0  0
    7.0444   15.1519   11.8147 H   0  0  0  0  0  0  0  0  0  0  0  0
    6.5539   16.0928   10.4076 H   0  0  0  0  0  0  0  0  0  0  0  0
    9.4622   15.9371   11.4877 H   0  0  0  0  0  0  0  0  0  0  0  0
    7.7263   18.1379   10.2380 H   0  0  0  0  0  0  0  0  0  0  0  0
   10.6341   18.0549   11.3270 H   0  0  0  0  0  0  0  0  0  0  0  0
    8.9053   20.2623   10.0746 H   0  0  0  0  0  0  0  0  0  0  0  0
   11.3219   21.0467    9.7517 H   0  0  0  0  0  0  0  0  0  0  0  0
   11.8117   20.1065   11.1580 H   0  0  0  0  0  0  0  0  0  0  0  0
   10.3096   21.4972   12.6134 H   0  0  0  0  0  0  0  0  0  0  0  0
    9.8451   22.4588   11.2080 H   0  0  0  0  0  0  0  0  0  0  0  0
   12.2408   23.1113   10.8648 H   0  0  0  0  0  0  0  0  0  0  0  0
   12.7032   22.1521   12.2721 H   0  0  0  0  0  0  0  0  0  0  0  0
   11.2214   23.5629   13.7216 H   0  0  0  0  0  0  0  0  0  0  0  0
   10.7583   24.5226   12.3137 H   0  0  0  0  0  0  0  0  0  0  0  0
   13.6097   24.2322   13.3977 H   0  0  0  0  0  0  0  0  0  0  0  0
   12.5568   25.6461   13.5950 H   0  0  0  0  0  0  0  0  0  0  0  0
   13.1443   25.1964   11.9829 H   0  0  0  0  0  0  0  0  0  0  0  0
    2.6913    3.3852    0.9553 H   0  0  0  0  0  0  0  0  0  0  0  0
    4.3365    3.4313    1.5832 H   0  0  0  0  0  0  0  0  0  0  0  0
    3.2051    5.1875   -0.6769 H   0  0  0  0  0  0  0  0  0  0  0  0
    4.2732    3.8047   -0.8915 H   0  0  0  0  0  0  0  0  0  0  0  0
    6.0511    4.9682    0.4326 H   0  0  0  0  0  0  0  0  0  0  0  0
    4.9855    6.3576    0.6526 H   0  0  0  0  0  0  0  0  0  0  0  0
    4.8573    6.6726   -1.8195 H   0  0  0  0  0  0  0  0  0  0  0  0
    5.9367    5.2939   -2.0509 H   0  0  0  0  0  0  0  0  0  0  0  0
    7.7010    6.4543   -0.7016 H   0  0  0  0  0  0  0  0  0  0  0  0
    6.6210    7.8325   -0.4756 H   0  0  0  0  0  0  0  0  0  0  0  0
    6.5205    8.1615   -2.9553 H   0  0  0  0  0  0  0  0  0  0  0  0
    7.5999    6.7829   -3.1821 H   0  0  0  0  0  0  0  0  0  0  0  0
    9.3601    7.9375   -1.8229 H   0  0  0  0  0  0  0  0  0  0  0  0
    8.2815    9.3161   -1.5967 H   0  0  0  0  0  0  0  0  0  0  0  0
    8.1796    9.6356   -4.0857 H   0  0  0  0  0  0  0  0  0  0  0  0
    9.2838    8.2796   -4.3062 H   0  0  0  0  0  0  0  0  0  0  0  0
   11.0849    9.5373   -2.9973 H   0  0  0  0  0  0  0  0  0  0  0  0
    9.2746   11.7125   -4.1929 H   0  0  0  0  0  0  0  0  0  0  0  0
   12.2103   11.7261   -3.1418 H   0  0  0  0  0  0  0  0  0  0  0  0
   10.4019   13.8965   -4.3566 H   0  0  0  0  0  0  0  0  0  0  0  0
   12.7941   14.7332   -4.6984 H   0  0  0  0  0  0  0  0  0  0  0  0
   13.3208   13.7912   -3.3055 H   0  0  0  0  0  0  0  0  0  0  0  0
   11.7976   15.1275   -1.8213 H   0  0  0  0  0  0  0  0  0  0  0  0
   11.2972   16.0921   -3.2125 H   0  0  0  0  0  0  0  0  0  0  0  0
   13.6727   16.8073   -3.5694 H   0  0  0  0  0  0  0  0  0  0  0  0
   14.1713   15.8451   -2.1765 H   0  0  0  0  0  0  0  0  0  0  0  0
   12.6673   17.2026   -0.6994 H   0  0  0  0  0  0  0  0  0  0  0  0
   12.1683   18.1654   -2.0928 H   0  0  0  0  0  0  0  0  0  0  0  0
   15.0351   17.9350   -1.0359 H   0  0  0  0  0  0  0  0  0  0  0  0
   13.9491   19.3198   -0.8143 H   0  0  0  0  0  0  0  0  0  0  0  0
   14.5337   18.9024   -2.4362 H   0  0  0  0  0  0  0  0  0  0  0  0
  1  2  1  0
  1 63  1  0
  1 64  1  0
  1 65  1  0
  2  3  1  0
  2 66  1  0
  2 67  1  0
  3  4  1  0
  3 68  1  0
  3 69  1  0
  4  5  1  0
  4 70  1  0
  4 71  1  0
  5  6  1  0
  5 72  1  0
  5 73  1  0
  6  7  2  0
  6 74  1  0
  7  8  1  0
  7 75  1  0
  8  9  2  0
  8 76  1  0
  9 10  1  0
  9 77  1  0
 10 11  1  0
 10 78  1  0
 10 79  1  0
 11 12  1  0
 11 80  1  0
 11 81  1  0
 12 13  1  0
 12 82  1  0
 12 83  1  0
 13 14  1  0
 13 84  1  0
 13 85  1  0
 14 15  1  0
 14 86  1  0
 14 87  1  0
 15 16  1  0
 15 88  1  0
 15 89  1  0
 16 17  1  0
 16 90  1  0
 16 91  1  0
 17 18  1  0
 17 92  1  0
 17 93  1  0
 18 19  2  0
 18 20  1  0
 20 21  1  0
 21 22  1  0
 21 94  1  0
 21 95  1  0
 22 23  1  0
 22 43  1  0
 22 96  1  6
 23 24  1  0
 23 97  1  0
 23 98  1  0
 24 25  1  0
 25 26  2  0
 25 27  1  0
 27 28  1  0
 27 99  1  0
 27100  1  0
 28 29  1  0
 28101  1  0
 28102  1  0
 29 30  1  0
 29103  1  0
 29104  1  0
 30 31  1  0
 30105  1  0
 30106  1  0
 31 32  1  0
 31107  1  0
 31108  1  0
 32 33  1  0
 32109  1  0
 32110  1  0
 33 34  1  0
 33111  1  0
 33112  1  0
 34 35  2  0
 34113  1  0
 35 36  1  0
 35114  1  0
 36 37  2  0
 36115  1  0
 37 38  1  0
 37116  1  0
 38 39  1  0
 38117  1  0
 38118  1  0
 39 40  1  0
 39119  1  0
 39120  1  0
 40 41  1  0
 40121  1  0
 40122  1  0
 41 42  1  0
 41123  1  0
 41124  1  0
 42125  1  0
 42126  1  0
 42127  1  0
 43 44  1  0
 44 45  2  0
 44 46  1  0
 46 47  1  0
 46128  1  0
 46129  1  0
 47 48  1  0
 47130  1  0
 47131  1  0
 48 49  1  0
 48132  1  0
 48133  1  0
 49 50  1  0
 49134  1  0
 49135  1  0
 50 51  1  0
 50136  1  0
 50137  1  0
 51 52  1  0
 51138  1  0
 51139  1  0
 52 53  1  0
 52140  1  0
 52141  1  0
 53 54  1  0
 53142  1  0
 53143  1  0
 54 55  2  0
 54144  1  0
 55 56  1  0
 55145  1  0
 56 57  2  0
 56146  1  0
 57 58  1  0
 57147  1  0
 58 59  1  0
 58148  1  0
 58149  1  0
 59 60  1  0
 59150  1  0
 59151  1  0
 60 61  1  0
 60152  1  0
 60153  1  0
 61 62  1  0
 61154  1  0
 61155  1  0
 62156  1  0
 62157  1  0
 62158  1  0
M  END
$$$$
