FYI-1013829-3D
     RDKit          3D

 52 51  0  0  0  0  0  0  0  0999 V2000
   12.7798   20.4033   11.8847 C   0  0  0  0  0  0  0  0  0  0  0  0
   12.1876   19.0065   11.8305 C   0  0  0  0  0  0  0  0  0  0  0  0
   10.7358   19.0112   12.3012 C   0  0  0  0  0  0  0  0  0  0  0  0
   10.1430   17.6053   12.2479 C   0  0  0  0  0  0  0  0  0  0  0  0
    8.6906   17.6089   12.7164 C   0  0  0  0  0  0  0  0  0  0  0  0
    8.0980   16.2325   12.6648 C   0  0  0  0  0  0  0  0  0  0  0  0
    7.0278   15.9428   11.9135 C   0  0  0  0  0  0  0  0  0  0  0  0
    6.4549   14.6244   11.8583 C   0  0  0  0  0  0  0  0  0  0  0  0
    5.3857   14.3335   11.1068 C   0  0  0  0  0  0  0  0  0  0  0  0
    4.7957   12.9565   11.0531 C   0  0  0  0  0  0  0  0  0  0  0  0
    4.8240   12.3979    9.6344 C   0  0  0  0  0  0  0  0  0  0  0  0
    4.2224   10.9959    9.5933 C   0  0  0  0  0  0  0  0  0  0  0  0
    4.2532   10.4379    8.1750 C   0  0  0  0  0  0  0  0  0  0  0  0
    3.6502    9.0350    8.1271 C   0  0  0  0  0  0  0  0  0  0  0  0
    3.6879    8.4908    6.7044 C   0  0  0  0  0  0  0  0  0  0  0  0
    3.0951    7.0857    6.5989 C   0  0  0  0  0  0  0  0  0  0  0  0
    3.1625    6.6054    5.1667 C   0  0  0  0  0  0  0  0  0  0  0  0
    3.6216    7.2454    4.2357 O   0  0  0  0  0  0  0  0  0  0  0  0
    2.6364    5.3500    5.0543 O   0  0  0  0  0  0  0  0  0  0  0  0
    2.6757    4.8467    3.7155 C   0  0  0  0  0  0  0  0  0  0  0  0
   13.8196   20.3887   11.5456 H   0  0  0  0  0  0  0  0  0  0  0  0
   12.7578   20.7957   12.9064 H   0  0  0  0  0  0  0  0  0  0  0  0
   12.2188   21.0887   11.2413 H   0  0  0  0  0  0  0  0  0  0  0  0
   12.7819   18.3344   12.4605 H   0  0  0  0  0  0  0  0  0  0  0  0
   12.2458   18.6259   10.8042 H   0  0  0  0  0  0  0  0  0  0  0  0
   10.1449   19.6866   11.6701 H   0  0  0  0  0  0  0  0  0  0  0  0
   10.6810   19.3974   13.3266 H   0  0  0  0  0  0  0  0  0  0  0  0
   10.7368   16.9331   12.8796 H   0  0  0  0  0  0  0  0  0  0  0  0
   10.2025   17.2212   11.2218 H   0  0  0  0  0  0  0  0  0  0  0  0
    8.1066   18.2896   12.0852 H   0  0  0  0  0  0  0  0  0  0  0  0
    8.6343   17.9870   13.7436 H   0  0  0  0  0  0  0  0  0  0  0  0
    8.5695   15.4596   13.2674 H   0  0  0  0  0  0  0  0  0  0  0  0
    6.5619   16.7226   11.3146 H   0  0  0  0  0  0  0  0  0  0  0  0
    6.9224   13.8447   12.4566 H   0  0  0  0  0  0  0  0  0  0  0  0
    4.9119   15.1066   10.5060 H   0  0  0  0  0  0  0  0  0  0  0  0
    3.7620   12.9924   11.4160 H   0  0  0  0  0  0  0  0  0  0  0  0
    5.3528   12.2862   11.7190 H   0  0  0  0  0  0  0  0  0  0  0  0
    5.8573   12.3654    9.2664 H   0  0  0  0  0  0  0  0  0  0  0  0
    4.2628   13.0582    8.9615 H   0  0  0  0  0  0  0  0  0  0  0  0
    3.1875   11.0254    9.9559 H   0  0  0  0  0  0  0  0  0  0  0  0
    4.7824   10.3319   10.2632 H   0  0  0  0  0  0  0  0  0  0  0  0
    5.2884   10.4099    7.8125 H   0  0  0  0  0  0  0  0  0  0  0  0
    3.6963   11.1046    7.5047 H   0  0  0  0  0  0  0  0  0  0  0  0
    2.6151    9.0663    8.4875 H   0  0  0  0  0  0  0  0  0  0  0  0
    4.2100    8.3704    8.7959 H   0  0  0  0  0  0  0  0  0  0  0  0
    4.7259    8.4771    6.3479 H   0  0  0  0  0  0  0  0  0  0  0  0
    3.1376    9.1702    6.0407 H   0  0  0  0  0  0  0  0  0  0  0  0
    2.0482    7.0969    6.9214 H   0  0  0  0  0  0  0  0  0  0  0  0
    3.6599    6.3936    7.2331 H   0  0  0  0  0  0  0  0  0  0  0  0
    2.2391    3.8441    3.7098 H   0  0  0  0  0  0  0  0  0  0  0  0
    3.7094    4.7749    3.3619 H   0  0  0  0  0  0  0  0  0  0  0  0
    2.0857    5.4834    3.0480 H   0  0  0  0  0  0  0  0  0  0  0  0
  1  2  1  0
  1 21  1  0
  1 22  1  0
  1 23  1  0
  2  3  1  0
  2 24  1  0
  2 25  1  0
  3  4  1  0
  3 26  1  0
  3 27  1  0
  4  5  1  0
  4 28  1  0
  4 29  1  0
  5  6  1  0
  5 30  1  0
  5 31  1  0
  6  7  2  0
  6 32  1  0
  7  8  1  0
  7 33  1  0
  8  9  2  0
  8 34  1  0
  9 10  1  0
  9 35  1  0
 10 11  1  0
 10 36  1  0
 10 37  1  0
 11 12  1  0
 11 38  1  0
 11 39  1  0
 12 13  1  0
 12 40  1  0
 12 41  1  0
 13 14  1  0
 13 42  1  0
 13 43  1  0
 14 15  1  0
 14 44  1  0
 14 45  1  0
 15 16  1  0
 15 46  1  0
 15 47  1  0
 16 17  1  0
 16 48  1  0
 16 49  1  0
 17 18  2  0
 17 19  1  0
 19 20  1  0
 20 50  1  0
 20 51  1  0
 20 52  1  0
M  END
$$$$
