FYI-1013826-3D
     RDKit          3D

158157  0  0  1  0  0  0  0  0999 V2000
   -3.7460   10.9526   19.3612 C   0  0  0  0  0  0  0  0  0  0  0  0
   -3.9151    9.7591   18.4390 C   0  0  0  0  0  0  0  0  0  0  0  0
   -3.5918   10.1391   16.9976 C   0  0  0  0  0  0  0  0  0  0  0  0
   -3.7593    8.9396   16.0690 C   0  0  0  0  0  0  0  0  0  0  0  0
   -3.4327    9.3226   14.6280 C   0  0  0  0  0  0  0  0  0  0  0  0
   -3.5935    8.1475   13.7099 C   0  0  0  0  0  0  0  0  0  0  0  0
   -2.5835    7.6616   12.9801 C   0  0  0  0  0  0  0  0  0  0  0  0
   -2.7230    6.5342   12.1002 C   0  0  0  0  0  0  0  0  0  0  0  0
   -1.7157    6.0435   11.3698 C   0  0  0  0  0  0  0  0  0  0  0  0
   -1.8737    4.8680   10.4525 C   0  0  0  0  0  0  0  0  0  0  0  0
   -1.5501    5.2555    9.0150 C   0  0  0  0  0  0  0  0  0  0  0  0
   -1.7198    4.0576    8.0884 C   0  0  0  0  0  0  0  0  0  0  0  0
   -1.3986    4.4491    6.6532 C   0  0  0  0  0  0  0  0  0  0  0  0
   -1.5683    3.2553    5.7247 C   0  0  0  0  0  0  0  0  0  0  0  0
   -1.2455    3.6498    4.2910 C   0  0  0  0  0  0  0  0  0  0  0  0
   -1.4000    2.4499    3.3601 C   0  0  0  0  0  0  0  0  0  0  0  0
   -1.0683    2.8062    1.9172 C   0  0  0  0  0  0  0  0  0  0  0  0
    0.3468    3.3113    1.7707 C   0  0  0  0  0  0  0  0  0  0  0  0
    0.6258    4.4336    1.3674 O   0  0  0  0  0  0  0  0  0  0  0  0
    1.2516    2.3668    2.1434 O   0  0  0  0  0  0  0  0  0  0  0  0
    2.6247    2.7788    2.0563 C   0  0  0  0  0  0  0  0  0  0  0  0
    3.1272    2.6694    0.6119 C   0  0  1  0  0  0  0  0  0  0  0  0
    4.6057    3.0897    0.5595 C   0  0  0  0  0  0  0  0  0  0  0  0
    4.7896    4.4521    1.0165 O   0  0  0  0  0  0  0  0  0  0  0  0
    5.6002    4.6680    2.0946 C   0  0  0  0  0  0  0  0  0  0  0  0
    6.1816    3.7989    2.7256 O   0  0  0  0  0  0  0  0  0  0  0  0
    5.7230    6.1312    2.4236 C   0  0  0  0  0  0  0  0  0  0  0  0
    7.1878    6.5385    2.3331 C   0  0  0  0  0  0  0  0  0  0  0  0
    7.3974    8.0036    2.6966 C   0  0  0  0  0  0  0  0  0  0  0  0
    8.8750    8.3724    2.5891 C   0  0  0  0  0  0  0  0  0  0  0  0
    9.0944    9.8367    2.9489 C   0  0  0  0  0  0  0  0  0  0  0  0
   10.5714   10.2035    2.8370 C   0  0  0  0  0  0  0  0  0  0  0  0
   10.7889   11.6707    3.1944 C   0  0  0  0  0  0  0  0  0  0  0  0
   12.2359   12.0477    3.0847 C   0  0  0  0  0  0  0  0  0  0  0  0
   12.6730   13.0024    2.2527 C   0  0  0  0  0  0  0  0  0  0  0  0
   14.0639   13.3570    2.1522 C   0  0  0  0  0  0  0  0  0  0  0  0
   14.5045   14.3090    1.3193 C   0  0  0  0  0  0  0  0  0  0  0  0
   15.9534   14.6867    1.2101 C   0  0  0  0  0  0  0  0  0  0  0  0
   16.1658   16.1525    1.5688 C   0  0  0  0  0  0  0  0  0  0  0  0
   17.6414   16.5240    1.4557 C   0  0  0  0  0  0  0  0  0  0  0  0
   17.8612   17.9909    1.8110 C   0  0  0  0  0  0  0  0  0  0  0  0
   19.3297   18.3580    1.6973 C   0  0  0  0  0  0  0  0  0  0  0  0
    2.9849    1.2964    0.1320 O   0  0  0  0  0  0  0  0  0  0  0  0
    2.1891    1.0998   -0.9501 C   0  0  0  0  0  0  0  0  0  0  0  0
    1.5964    1.9547   -1.6047 O   0  0  0  0  0  0  0  0  0  0  0  0
    2.1209   -0.3622   -1.3548 C   0  0  0  0  0  0  0  0  0  0  0  0
    2.6157   -0.5515   -2.7876 C   0  0  0  0  0  0  0  0  0  0  0  0
    4.0818   -0.1564   -2.9295 C   0  0  0  0  0  0  0  0  0  0  0  0
    4.5577   -0.3443   -4.3629 C   0  0  0  0  0  0  0  0  0  0  0  0
    6.0194    0.0624   -4.4876 C   0  0  0  0  0  0  0  0  0  0  0  0
    6.5070   -0.1244   -5.9171 C   0  0  0  0  0  0  0  0  0  0  0  0
    7.9712    0.2822   -6.0353 C   0  0  0  0  0  0  0  0  0  0  0  0
    8.4632    0.0970   -7.4660 C   0  0  0  0  0  0  0  0  0  0  0  0
    9.9019    0.4941   -7.5945 C   0  0  0  0  0  0  0  0  0  0  0  0
   10.3113    1.4717   -8.4152 C   0  0  0  0  0  0  0  0  0  0  0  0
   11.6901    1.8631   -8.5386 C   0  0  0  0  0  0  0  0  0  0  0  0
   12.0969    2.8398   -9.3620 C   0  0  0  0  0  0  0  0  0  0  0  0
   13.5351    3.2458   -9.4848 C   0  0  0  0  0  0  0  0  0  0  0  0
   13.7256    4.7114   -9.1068 C   0  0  0  0  0  0  0  0  0  0  0  0
   15.1921    5.1133   -9.2328 C   0  0  0  0  0  0  0  0  0  0  0  0
   15.3870    6.5784   -8.8572 C   0  0  0  0  0  0  0  0  0  0  0  0
   16.8461    6.9766   -8.9835 C   0  0  0  0  0  0  0  0  0  0  0  0
   -3.9795   10.6725   20.3923 H   0  0  0  0  0  0  0  0  0  0  0  0
   -4.4141   11.7683   19.0669 H   0  0  0  0  0  0  0  0  0  0  0  0
   -2.7167   11.3240   19.3307 H   0  0  0  0  0  0  0  0  0  0  0  0
   -4.9449    9.3892   18.5055 H   0  0  0  0  0  0  0  0  0  0  0  0
   -3.2559    8.9472   18.7680 H   0  0  0  0  0  0  0  0  0  0  0  0
   -2.5625   10.5138   16.9363 H   0  0  0  0  0  0  0  0  0  0  0  0
   -4.2512   10.9534   16.6728 H   0  0  0  0  0  0  0  0  0  0  0  0
   -4.7890    8.5662   16.1348 H   0  0  0  0  0  0  0  0  0  0  0  0
   -3.1000    8.1263   16.3980 H   0  0  0  0  0  0  0  0  0  0  0  0
   -2.4102    9.7154   14.5782 H   0  0  0  0  0  0  0  0  0  0  0  0
   -4.1004   10.1257   14.2945 H   0  0  0  0  0  0  0  0  0  0  0  0
   -4.5845    7.7022   13.6609 H   0  0  0  0  0  0  0  0  0  0  0  0
   -1.5991    8.1296   13.0449 H   0  0  0  0  0  0  0  0  0  0  0  0
   -3.7076    6.0701   12.0375 H   0  0  0  0  0  0  0  0  0  0  0  0
   -0.7264    6.4972   11.4243 H   0  0  0  0  0  0  0  0  0  0  0  0
   -2.8970    4.4764   10.5023 H   0  0  0  0  0  0  0  0  0  0  0  0
   -1.2065    4.0644   10.7842 H   0  0  0  0  0  0  0  0  0  0  0  0
   -0.5204    5.6290    8.9473 H   0  0  0  0  0  0  0  0  0  0  0  0
   -2.2096    6.0693    8.6869 H   0  0  0  0  0  0  0  0  0  0  0  0
   -2.7488    3.6819    8.1479 H   0  0  0  0  0  0  0  0  0  0  0  0
   -1.0586    3.2425    8.4076 H   0  0  0  0  0  0  0  0  0  0  0  0
   -0.3692    4.8238    6.5927 H   0  0  0  0  0  0  0  0  0  0  0  0
   -2.0593    5.2641    6.3334 H   0  0  0  0  0  0  0  0  0  0  0  0
   -2.5967    2.8796    5.7848 H   0  0  0  0  0  0  0  0  0  0  0  0
   -0.9050    2.4417    6.0436 H   0  0  0  0  0  0  0  0  0  0  0  0
   -0.2196    4.0347    4.2491 H   0  0  0  0  0  0  0  0  0  0  0  0
   -1.9079    4.4626    3.9683 H   0  0  0  0  0  0  0  0  0  0  0  0
   -2.4309    2.0799    3.4110 H   0  0  0  0  0  0  0  0  0  0  0  0
   -0.7504    1.6354    3.7007 H   0  0  0  0  0  0  0  0  0  0  0  0
   -1.7492    3.5876    1.5600 H   0  0  0  0  0  0  0  0  0  0  0  0
   -1.2064    1.9388    1.2636 H   0  0  0  0  0  0  0  0  0  0  0  0
    3.2030    2.1280    2.7218 H   0  0  0  0  0  0  0  0  0  0  0  0
    2.7358    3.8005    2.4416 H   0  0  0  0  0  0  0  0  0  0  0  0
    2.5462    3.3519   -0.0145 H   0  0  0  0  0  0  0  0  0  0  0  0
    4.9774    3.0348   -0.4729 H   0  0  0  0  0  0  0  0  0  0  0  0
    5.2203    2.3916    1.1400 H   0  0  0  0  0  0  0  0  0  0  0  0
    5.3369    6.2817    3.4354 H   0  0  0  0  0  0  0  0  0  0  0  0
    5.1097    6.7404    1.7446 H   0  0  0  0  0  0  0  0  0  0  0  0
    7.5603    6.3525    1.3167 H   0  0  0  0  0  0  0  0  0  0  0  0
    7.7914    5.9117    3.0033 H   0  0  0  0  0  0  0  0  0  0  0  0
    7.0453    8.1889    3.7186 H   0  0  0  0  0  0  0  0  0  0  0  0
    6.8082    8.6412    2.0276 H   0  0  0  0  0  0  0  0  0  0  0  0
    9.2301    8.1856    1.5682 H   0  0  0  0  0  0  0  0  0  0  0  0
    9.4670    7.7353    3.2580 H   0  0  0  0  0  0  0  0  0  0  0  0
    8.7416   10.0226    3.9708 H   0  0  0  0  0  0  0  0  0  0  0  0
    8.5013   10.4730    2.2806 H   0  0  0  0  0  0  0  0  0  0  0  0
   10.9207   10.0107    1.8145 H   0  0  0  0  0  0  0  0  0  0  0  0
   11.1605    9.5619    3.5046 H   0  0  0  0  0  0  0  0  0  0  0  0
   10.4509   11.8587    4.2200 H   0  0  0  0  0  0  0  0  0  0  0  0
   10.1765   12.2989    2.5357 H   0  0  0  0  0  0  0  0  0  0  0  0
   12.9396   11.5109    3.7159 H   0  0  0  0  0  0  0  0  0  0  0  0
   11.9714   13.5371    1.6242 H   0  0  0  0  0  0  0  0  0  0  0  0
   14.7608   12.8143    2.7839 H   0  0  0  0  0  0  0  0  0  0  0  0
   13.8012   14.8426    0.6874 H   0  0  0  0  0  0  0  0  0  0  0  0
   16.2891   14.4960    0.1873 H   0  0  0  0  0  0  0  0  0  0  0  0
   16.5629   14.0563    1.8706 H   0  0  0  0  0  0  0  0  0  0  0  0
   15.8170   16.3437    2.5915 H   0  0  0  0  0  0  0  0  0  0  0  0
   15.5742   16.7926    0.9018 H   0  0  0  0  0  0  0  0  0  0  0  0
   17.9938   16.3342    0.4342 H   0  0  0  0  0  0  0  0  0  0  0  0
   18.2356   15.8889    2.1247 H   0  0  0  0  0  0  0  0  0  0  0  0
   17.5149   18.1836    2.8331 H   0  0  0  0  0  0  0  0  0  0  0  0
   17.2726   18.6293    1.1419 H   0  0  0  0  0  0  0  0  0  0  0  0
   19.9356   17.7495    2.3764 H   0  0  0  0  0  0  0  0  0  0  0  0
   19.4794   19.4106    1.9532 H   0  0  0  0  0  0  0  0  0  0  0  0
   19.6920   18.1973    0.6769 H   0  0  0  0  0  0  0  0  0  0  0  0
    1.0690   -0.6682   -1.2925 H   0  0  0  0  0  0  0  0  0  0  0  0
    2.6815   -0.9939   -0.6623 H   0  0  0  0  0  0  0  0  0  0  0  0
    2.0083    0.0472   -3.4793 H   0  0  0  0  0  0  0  0  0  0  0  0
    2.4878   -1.5999   -3.0836 H   0  0  0  0  0  0  0  0  0  0  0  0
    4.6942   -0.7607   -2.2497 H   0  0  0  0  0  0  0  0  0  0  0  0
    4.2200    0.8930   -2.6430 H   0  0  0  0  0  0  0  0  0  0  0  0
    3.9456    0.2623   -5.0418 H   0  0  0  0  0  0  0  0  0  0  0  0
    4.4353   -1.3918   -4.6626 H   0  0  0  0  0  0  0  0  0  0  0  0
    6.6308   -0.5406   -3.8050 H   0  0  0  0  0  0  0  0  0  0  0  0
    6.1398    1.1112   -4.1889 H   0  0  0  0  0  0  0  0  0  0  0  0
    5.8953    0.4793   -6.5989 H   0  0  0  0  0  0  0  0  0  0  0  0
    6.3855   -1.1730   -6.2156 H   0  0  0  0  0  0  0  0  0  0  0  0
    8.5762   -0.3215   -5.3468 H   0  0  0  0  0  0  0  0  0  0  0  0
    8.0866    1.3303   -5.7306 H   0  0  0  0  0  0  0  0  0  0  0  0
    7.8365    0.6873   -8.1455 H   0  0  0  0  0  0  0  0  0  0  0  0
    8.3584   -0.9525   -7.7642 H   0  0  0  0  0  0  0  0  0  0  0  0
   10.6181   -0.0478   -6.9805 H   0  0  0  0  0  0  0  0  0  0  0  0
    9.5775    2.0048   -9.0157 H   0  0  0  0  0  0  0  0  0  0  0  0
   12.4229    1.3391   -7.9278 H   0  0  0  0  0  0  0  0  0  0  0  0
   11.3803    3.3796   -9.9786 H   0  0  0  0  0  0  0  0  0  0  0  0
   13.8620    3.0792  -10.5177 H   0  0  0  0  0  0  0  0  0  0  0  0
   14.1681    2.6193   -8.8444 H   0  0  0  0  0  0  0  0  0  0  0  0
   13.3863    4.8794   -8.0766 H   0  0  0  0  0  0  0  0  0  0  0  0
   13.1129    5.3493   -9.7560 H   0  0  0  0  0  0  0  0  0  0  0  0
   15.5344    4.9462  -10.2617 H   0  0  0  0  0  0  0  0  0  0  0  0
   15.8072    4.4795   -8.5818 H   0  0  0  0  0  0  0  0  0  0  0  0
   15.0500    6.7479   -7.8279 H   0  0  0  0  0  0  0  0  0  0  0  0
   14.7769    7.2150   -9.5086 H   0  0  0  0  0  0  0  0  0  0  0  0
   17.4727    6.3700   -8.3220 H   0  0  0  0  0  0  0  0  0  0  0  0
   16.9780    8.0279   -8.7128 H   0  0  0  0  0  0  0  0  0  0  0  0
   17.1983    6.8392  -10.0110 H   0  0  0  0  0  0  0  0  0  0  0  0
  1  2  1  0
  1 63  1  0
  1 64  1  0
  1 65  1  0
  2  3  1  0
  2 66  1  0
  2 67  1  0
  3  4  1  0
  3 68  1  0
  3 69  1  0
  4  5  1  0
  4 70  1  0
  4 71  1  0
  5  6  1  0
  5 72  1  0
  5 73  1  0
  6  7  2  0
  6 74  1  0
  7  8  1  0
  7 75  1  0
  8  9  2  0
  8 76  1  0
  9 10  1  0
  9 77  1  0
 10 11  1  0
 10 78  1  0
 10 79  1  0
 11 12  1  0
 11 80  1  0
 11 81  1  0
 12 13  1  0
 12 82  1  0
 12 83  1  0
 13 14  1  0
 13 84  1  0
 13 85  1  0
 14 15  1  0
 14 86  1  0
 14 87  1  0
 15 16  1  0
 15 88  1  0
 15 89  1  0
 16 17  1  0
 16 90  1  0
 16 91  1  0
 17 18  1  0
 17 92  1  0
 17 93  1  0
 18 19  2  0
 18 20  1  0
 20 21  1  0
 21 22  1  0
 21 94  1  0
 21 95  1  0
 22 23  1  0
 22 43  1  0
 22 96  1  6
 23 24  1  0
 23 97  1  0
 23 98  1  0
 24 25  1  0
 25 26  2  0
 25 27  1  0
 27 28  1  0
 27 99  1  0
 27100  1  0
 28 29  1  0
 28101  1  0
 28102  1  0
 29 30  1  0
 29103  1  0
 29104  1  0
 30 31  1  0
 30105  1  0
 30106  1  0
 31 32  1  0
 31107  1  0
 31108  1  0
 32 33  1  0
 32109  1  0
 32110  1  0
 33 34  1  0
 33111  1  0
 33112  1  0
 34 35  2  0
 34113  1  0
 35 36  1  0
 35114  1  0
 36 37  2  0
 36115  1  0
 37 38  1  0
 37116  1  0
 38 39  1  0
 38117  1  0
 38118  1  0
 39 40  1  0
 39119  1  0
 39120  1  0
 40 41  1  0
 40121  1  0
 40122  1  0
 41 42  1  0
 41123  1  0
 41124  1  0
 42125  1  0
 42126  1  0
 42127  1  0
 43 44  1  0
 44 45  2  0
 44 46  1  0
 46 47  1  0
 46128  1  0
 46129  1  0
 47 48  1  0
 47130  1  0
 47131  1  0
 48 49  1  0
 48132  1  0
 48133  1  0
 49 50  1  0
 49134  1  0
 49135  1  0
 50 51  1  0
 50136  1  0
 50137  1  0
 51 52  1  0
 51138  1  0
 51139  1  0
 52 53  1  0
 52140  1  0
 52141  1  0
 53 54  1  0
 53142  1  0
 53143  1  0
 54 55  2  0
 54144  1  0
 55 56  1  0
 55145  1  0
 56 57  2  0
 56146  1  0
 57 58  1  0
 57147  1  0
 58 59  1  0
 58148  1  0
 58149  1  0
 59 60  1  0
 59150  1  0
 59151  1  0
 60 61  1  0
 60152  1  0
 60153  1  0
 61 62  1  0
 61154  1  0
 61155  1  0
 62156  1  0
 62157  1  0
 62158  1  0
M  END
$$$$
