FYI-1013827-3D
     RDKit          3D

112111  0  0  1  0  0  0  0  0999 V2000
  -12.3638   -9.3841  -20.3819 C   0  0  0  0  0  0  0  0  0  0  0  0
  -12.2870   -8.3917  -19.2354 C   0  0  0  0  0  0  0  0  0  0  0  0
  -11.0299   -8.6205  -18.4009 C   0  0  0  0  0  0  0  0  0  0  0  0
  -10.9534   -7.6238  -17.2468 C   0  0  0  0  0  0  0  0  0  0  0  0
   -9.6957   -7.8526  -16.4131 C   0  0  0  0  0  0  0  0  0  0  0  0
   -9.6114   -6.8798  -15.2769 C   0  0  0  0  0  0  0  0  0  0  0  0
   -8.5882   -6.0265  -15.1448 C   0  0  0  0  0  0  0  0  0  0  0  0
   -8.5024   -5.0902  -14.0566 C   0  0  0  0  0  0  0  0  0  0  0  0
   -7.4837   -4.2342  -13.9150 C   0  0  0  0  0  0  0  0  0  0  0  0
   -7.4011   -3.2632  -12.7765 C   0  0  0  0  0  0  0  0  0  0  0  0
   -6.1456   -3.4963  -11.9444 C   0  0  0  0  0  0  0  0  0  0  0  0
   -6.0711   -2.5028  -10.7889 C   0  0  0  0  0  0  0  0  0  0  0  0
   -4.8137   -2.7447   -9.9613 C   0  0  0  0  0  0  0  0  0  0  0  0
   -4.7266   -1.7600   -8.8017 C   0  0  0  0  0  0  0  0  0  0  0  0
   -3.4629   -2.0046   -7.9755 C   0  0  0  0  0  0  0  0  0  0  0  0
   -3.3865   -1.0137   -6.8173 C   0  0  0  0  0  0  0  0  0  0  0  0
   -2.1413   -1.2033   -5.9481 C   0  0  0  0  0  0  0  0  0  0  0  0
   -2.1468   -0.1824   -4.8211 C   0  0  0  0  0  0  0  0  0  0  0  0
   -3.1573    0.2615   -4.3093 O   0  0  0  0  0  0  0  0  0  0  0  0
   -0.8687    0.1516   -4.4567 O   0  0  0  0  0  0  0  0  0  0  0  0
   -0.7592    1.1514   -3.4064 C   0  0  0  0  0  0  0  0  0  0  0  0
   -0.9717    2.5808   -3.9417 C   0  0  1  0  0  0  0  0  0  0  0  0
   -0.8451    3.5933   -2.7962 C   0  0  0  0  0  0  0  0  0  0  0  0
   -1.8175    3.3336   -1.7919 O   0  0  0  0  0  0  0  0  0  0  0  0
    0.0016    2.8945   -4.9636 O   0  0  0  0  0  0  0  0  0  0  0  0
   -0.5354    3.1677   -6.1940 C   0  0  0  0  0  0  0  0  0  0  0  0
   -1.7280    3.2187   -6.4425 O   0  0  0  0  0  0  0  0  0  0  0  0
    0.5360    3.4858   -7.2194 C   0  0  0  0  0  0  0  0  0  0  0  0
    0.3666    4.9013   -7.7715 C   0  0  0  0  0  0  0  0  0  0  0  0
    0.4775    5.9677   -6.6846 C   0  0  0  0  0  0  0  0  0  0  0  0
    0.2962    7.3608   -7.2810 C   0  0  0  0  0  0  0  0  0  0  0  0
    0.4033    8.4281   -6.1996 C   0  0  0  0  0  0  0  0  0  0  0  0
    0.2241    9.8207   -6.7923 C   0  0  0  0  0  0  0  0  0  0  0  0
    0.3313   10.8811   -5.7025 C   0  0  0  0  0  0  0  0  0  0  0  0
    0.1525   12.2771   -6.2861 C   0  0  0  0  0  0  0  0  0  0  0  0
    0.2585   13.3202   -5.2167 C   0  0  0  0  0  0  0  0  0  0  0  0
    1.1916   14.2823   -5.2448 C   0  0  0  0  0  0  0  0  0  0  0  0
    1.3087   15.2908   -4.2241 C   0  0  0  0  0  0  0  0  0  0  0  0
    2.2422   16.2480   -4.2592 C   0  0  0  0  0  0  0  0  0  0  0  0
    2.3558   17.2964   -3.1918 C   0  0  0  0  0  0  0  0  0  0  0  0
    2.1807   18.6963   -3.7741 C   0  0  0  0  0  0  0  0  0  0  0  0
    2.2929   19.7584   -2.6835 C   0  0  0  0  0  0  0  0  0  0  0  0
    2.1210   21.1594   -3.2641 C   0  0  0  0  0  0  0  0  0  0  0  0
    2.2331   22.2133   -2.1765 C   0  0  0  0  0  0  0  0  0  0  0  0
  -13.2674   -9.2122  -20.9736 H   0  0  0  0  0  0  0  0  0  0  0  0
  -12.3906  -10.4117  -20.0054 H   0  0  0  0  0  0  0  0  0  0  0  0
  -11.4967   -9.2829  -21.0423 H   0  0  0  0  0  0  0  0  0  0  0  0
  -13.1777   -8.4943  -18.6046 H   0  0  0  0  0  0  0  0  0  0  0  0
  -12.2885   -7.3713  -19.6362 H   0  0  0  0  0  0  0  0  0  0  0  0
  -10.1414   -8.5194  -19.0366 H   0  0  0  0  0  0  0  0  0  0  0  0
  -11.0298   -9.6442  -18.0065 H   0  0  0  0  0  0  0  0  0  0  0  0
  -11.8441   -7.7265  -16.6148 H   0  0  0  0  0  0  0  0  0  0  0  0
  -10.9555   -6.6015  -17.6448 H   0  0  0  0  0  0  0  0  0  0  0  0
   -8.8115   -7.7570  -17.0549 H   0  0  0  0  0  0  0  0  0  0  0  0
   -9.6987   -8.8736  -16.0133 H   0  0  0  0  0  0  0  0  0  0  0  0
  -10.4203   -6.8887  -14.5484 H   0  0  0  0  0  0  0  0  0  0  0  0
   -7.7857   -6.0288  -15.8785 H   0  0  0  0  0  0  0  0  0  0  0  0
   -9.3097   -5.0958  -13.3289 H   0  0  0  0  0  0  0  0  0  0  0  0
   -6.6760   -4.2281  -14.6431 H   0  0  0  0  0  0  0  0  0  0  0  0
   -8.2864   -3.3612  -12.1359 H   0  0  0  0  0  0  0  0  0  0  0  0
   -7.3969   -2.2415  -13.1737 H   0  0  0  0  0  0  0  0  0  0  0  0
   -5.2544   -3.3906  -12.5753 H   0  0  0  0  0  0  0  0  0  0  0  0
   -6.1417   -4.5204  -11.5503 H   0  0  0  0  0  0  0  0  0  0  0  0
   -6.9596   -2.6027  -10.1530 H   0  0  0  0  0  0  0  0  0  0  0  0
   -6.0667   -1.4776  -11.1796 H   0  0  0  0  0  0  0  0  0  0  0  0
   -3.9275   -2.6428  -10.5992 H   0  0  0  0  0  0  0  0  0  0  0  0
   -4.8194   -3.7708   -9.5744 H   0  0  0  0  0  0  0  0  0  0  0  0
   -5.6144   -1.8622   -8.1650 H   0  0  0  0  0  0  0  0  0  0  0  0
   -4.7259   -0.7336   -9.1895 H   0  0  0  0  0  0  0  0  0  0  0  0
   -2.5798   -1.9005   -8.6170 H   0  0  0  0  0  0  0  0  0  0  0  0
   -3.4696   -3.0321   -7.5916 H   0  0  0  0  0  0  0  0  0  0  0  0
   -4.2844   -1.1223   -6.1969 H   0  0  0  0  0  0  0  0  0  0  0  0
   -3.4007    0.0077   -7.2155 H   0  0  0  0  0  0  0  0  0  0  0  0
   -1.2414   -1.0716   -6.5590 H   0  0  0  0  0  0  0  0  0  0  0  0
   -2.1296   -2.2111   -5.5186 H   0  0  0  0  0  0  0  0  0  0  0  0
    0.2358    1.0550   -2.9591 H   0  0  0  0  0  0  0  0  0  0  0  0
   -1.4925    0.9247   -2.6189 H   0  0  0  0  0  0  0  0  0  0  0  0
   -1.9889    2.6242   -4.3444 H   0  0  0  0  0  0  0  0  0  0  0  0
   -0.9919    4.6260   -3.1321 H   0  0  0  0  0  0  0  0  0  0  0  0
    0.1526    3.5495   -2.3444 H   0  0  0  0  0  0  0  0  0  0  0  0
   -2.6817    3.3755   -2.2387 H   0  0  0  0  0  0  0  0  0  0  0  0
    0.4529    2.7589   -8.0369 H   0  0  0  0  0  0  0  0  0  0  0  0
    1.5313    3.3722   -6.7773 H   0  0  0  0  0  0  0  0  0  0  0  0
   -0.6083    4.9890   -8.2660 H   0  0  0  0  0  0  0  0  0  0  0  0
    1.1292    5.0904   -8.5380 H   0  0  0  0  0  0  0  0  0  0  0  0
    1.4563    5.9000   -6.1937 H   0  0  0  0  0  0  0  0  0  0  0  0
   -0.2843    5.8007   -5.9135 H   0  0  0  0  0  0  0  0  0  0  0  0
   -0.6817    7.4314   -7.7731 H   0  0  0  0  0  0  0  0  0  0  0  0
    1.0574    7.5379   -8.0503 H   0  0  0  0  0  0  0  0  0  0  0  0
    1.3814    8.3591   -5.7076 H   0  0  0  0  0  0  0  0  0  0  0  0
   -0.3596    8.2535   -5.4306 H   0  0  0  0  0  0  0  0  0  0  0  0
   -0.7526    9.8911   -7.2866 H   0  0  0  0  0  0  0  0  0  0  0  0
    0.9890    9.9993   -7.5592 H   0  0  0  0  0  0  0  0  0  0  0  0
    1.3104   10.8045   -5.2127 H   0  0  0  0  0  0  0  0  0  0  0  0
   -0.4300   10.6967   -4.9334 H   0  0  0  0  0  0  0  0  0  0  0  0
   -0.8302   12.3542   -6.7683 H   0  0  0  0  0  0  0  0  0  0  0  0
    0.9098   12.4506   -7.0603 H   0  0  0  0  0  0  0  0  0  0  0  0
   -0.4543   13.2732   -4.3979 H   0  0  0  0  0  0  0  0  0  0  0  0
    1.8980   14.3143   -6.0703 H   0  0  0  0  0  0  0  0  0  0  0  0
    0.6030   15.2683   -3.3953 H   0  0  0  0  0  0  0  0  0  0  0  0
    2.9593   16.2946   -5.0775 H   0  0  0  0  0  0  0  0  0  0  0  0
    3.3380   17.2145   -2.7117 H   0  0  0  0  0  0  0  0  0  0  0  0
    1.5988   17.1254   -2.4161 H   0  0  0  0  0  0  0  0  0  0  0  0
    1.2024   18.7761   -4.2645 H   0  0  0  0  0  0  0  0  0  0  0  0
    2.9427   18.8779   -4.5419 H   0  0  0  0  0  0  0  0  0  0  0  0
    3.2704   19.6809   -2.1912 H   0  0  0  0  0  0  0  0  0  0  0  0
    1.5294   19.5814   -1.9158 H   0  0  0  0  0  0  0  0  0  0  0  0
    1.1434   21.2438   -3.7533 H   0  0  0  0  0  0  0  0  0  0  0  0
    2.8842   21.3432   -4.0292 H   0  0  0  0  0  0  0  0  0  0  0  0
    1.4630   22.0671   -1.4125 H   0  0  0  0  0  0  0  0  0  0  0  0
    2.1085   23.2133   -2.6017 H   0  0  0  0  0  0  0  0  0  0  0  0
    3.2125   22.1672   -1.6898 H   0  0  0  0  0  0  0  0  0  0  0  0
  1  2  1  0
  1 45  1  0
  1 46  1  0
  1 47  1  0
  2  3  1  0
  2 48  1  0
  2 49  1  0
  3  4  1  0
  3 50  1  0
  3 51  1  0
  4  5  1  0
  4 52  1  0
  4 53  1  0
  5  6  1  0
  5 54  1  0
  5 55  1  0
  6  7  2  0
  6 56  1  0
  7  8  1  0
  7 57  1  0
  8  9  2  0
  8 58  1  0
  9 10  1  0
  9 59  1  0
 10 11  1  0
 10 60  1  0
 10 61  1  0
 11 12  1  0
 11 62  1  0
 11 63  1  0
 12 13  1  0
 12 64  1  0
 12 65  1  0
 13 14  1  0
 13 66  1  0
 13 67  1  0
 14 15  1  0
 14 68  1  0
 14 69  1  0
 15 16  1  0
 15 70  1  0
 15 71  1  0
 16 17  1  0
 16 72  1  0
 16 73  1  0
 17 18  1  0
 17 74  1  0
 17 75  1  0
 18 19  2  0
 18 20  1  0
 20 21  1  0
 21 22  1  0
 21 76  1  0
 21 77  1  0
 22 23  1  0
 22 25  1  0
 22 78  1  6
 23 24  1  0
 23 79  1  0
 23 80  1  0
 24 81  1  0
 25 26  1  0
 26 27  2  0
 26 28  1  0
 28 29  1  0
 28 82  1  0
 28 83  1  0
 29 30  1  0
 29 84  1  0
 29 85  1  0
 30 31  1  0
 30 86  1  0
 30 87  1  0
 31 32  1  0
 31 88  1  0
 31 89  1  0
 32 33  1  0
 32 90  1  0
 32 91  1  0
 33 34  1  0
 33 92  1  0
 33 93  1  0
 34 35  1  0
 34 94  1  0
 34 95  1  0
 35 36  1  0
 35 96  1  0
 35 97  1  0
 36 37  2  0
 36 98  1  0
 37 38  1  0
 37 99  1  0
 38 39  2  0
 38100  1  0
 39 40  1  0
 39101  1  0
 40 41  1  0
 40102  1  0
 40103  1  0
 41 42  1  0
 41104  1  0
 41105  1  0
 42 43  1  0
 42106  1  0
 42107  1  0
 43 44  1  0
 43108  1  0
 43109  1  0
 44110  1  0
 44111  1  0
 44112  1  0
M  END
$$$$
