FYI-1013829-3D
     RDKit          3D

 52 51  0  0  0  0  0  0  0  0999 V2000
   20.3702   17.3584    3.0649 C   0  0  0  0  0  0  0  0  0  0  0  0
   19.3683   16.3267    3.5511 C   0  0  0  0  0  0  0  0  0  0  0  0
   18.0892   16.9983    4.0431 C   0  0  0  0  0  0  0  0  0  0  0  0
   17.0840   15.9591    4.5334 C   0  0  0  0  0  0  0  0  0  0  0  0
   15.8037   16.6293    5.0237 C   0  0  0  0  0  0  0  0  0  0  0  0
   14.8082   15.6164    5.5049 C   0  0  0  0  0  0  0  0  0  0  0  0
   13.5936   15.4908    4.9549 C   0  0  0  0  0  0  0  0  0  0  0  0
   12.6343   14.5204    5.4106 C   0  0  0  0  0  0  0  0  0  0  0  0
   11.4201   14.3934    4.8607 C   0  0  0  0  0  0  0  0  0  0  0  0
   10.4266   13.3784    5.3401 C   0  0  0  0  0  0  0  0  0  0  0  0
   10.0454   12.4091    4.2262 C   0  0  0  0  0  0  0  0  0  0  0  0
    9.0353   11.3804    4.7268 C   0  0  0  0  0  0  0  0  0  0  0  0
    8.6567   10.4109    3.6130 C   0  0  0  0  0  0  0  0  0  0  0  0
    7.6438    9.3797    4.1077 C   0  0  0  0  0  0  0  0  0  0  0  0
    7.2754    8.4184    2.9844 C   0  0  0  0  0  0  0  0  0  0  0  0
    6.2619    7.3626    3.4260 C   0  0  0  0  0  0  0  0  0  0  0  0
    5.9397    6.4435    2.2693 C   0  0  0  0  0  0  0  0  0  0  0  0
    6.4181    6.5331    1.1512 O   0  0  0  0  0  0  0  0  0  0  0  0
    5.0346    5.4929    2.6468 O   0  0  0  0  0  0  0  0  0  0  0  0
    4.6942    4.5947    1.5864 C   0  0  0  0  0  0  0  0  0  0  0  0
   21.2825   16.8668    2.7148 H   0  0  0  0  0  0  0  0  0  0  0  0
   20.6400   18.0484    3.8707 H   0  0  0  0  0  0  0  0  0  0  0  0
   19.9559   17.9426    2.2368 H   0  0  0  0  0  0  0  0  0  0  0  0
   19.8157   15.7380    4.3604 H   0  0  0  0  0  0  0  0  0  0  0  0
   19.1353   15.6327    2.7351 H   0  0  0  0  0  0  0  0  0  0  0  0
   17.6459   17.5883    3.2312 H   0  0  0  0  0  0  0  0  0  0  0  0
   18.3271   17.6957    4.8559 H   0  0  0  0  0  0  0  0  0  0  0  0
   17.5312   15.3711    5.3444 H   0  0  0  0  0  0  0  0  0  0  0  0
   16.8511   15.2617    3.7189 H   0  0  0  0  0  0  0  0  0  0  0  0
   15.3685   17.2214    4.2097 H   0  0  0  0  0  0  0  0  0  0  0  0
   16.0379   17.3207    5.8414 H   0  0  0  0  0  0  0  0  0  0  0  0
   15.1046   14.9736    6.3307 H   0  0  0  0  0  0  0  0  0  0  0  0
   13.3052   16.1388    4.1297 H   0  0  0  0  0  0  0  0  0  0  0  0
   12.9241   13.8718    6.2349 H   0  0  0  0  0  0  0  0  0  0  0  0
   11.1219   15.0377    4.0367 H   0  0  0  0  0  0  0  0  0  0  0  0
    9.5306   13.8943    5.7041 H   0  0  0  0  0  0  0  0  0  0  0  0
   10.8456   12.8162    6.1836 H   0  0  0  0  0  0  0  0  0  0  0  0
   10.9413   11.8945    3.8561 H   0  0  0  0  0  0  0  0  0  0  0  0
    9.6183   12.9616    3.3799 H   0  0  0  0  0  0  0  0  0  0  0  0
    8.1362   11.8911    5.0930 H   0  0  0  0  0  0  0  0  0  0  0  0
    9.4597   10.8242    5.5716 H   0  0  0  0  0  0  0  0  0  0  0  0
    9.5567    9.9015    3.2463 H   0  0  0  0  0  0  0  0  0  0  0  0
    8.2360   10.9683    2.7666 H   0  0  0  0  0  0  0  0  0  0  0  0
    6.7447    9.8912    4.4712 H   0  0  0  0  0  0  0  0  0  0  0  0
    8.0676    8.8226    4.9517 H   0  0  0  0  0  0  0  0  0  0  0  0
    8.1833    7.9225    2.6179 H   0  0  0  0  0  0  0  0  0  0  0  0
    6.8659    8.9867    2.1393 H   0  0  0  0  0  0  0  0  0  0  0  0
    5.3392    7.8481    3.7622 H   0  0  0  0  0  0  0  0  0  0  0  0
    6.6761    6.7682    4.2478 H   0  0  0  0  0  0  0  0  0  0  0  0
    3.9698    3.8691    1.9668 H   0  0  0  0  0  0  0  0  0  0  0  0
    5.5804    4.0503    1.2442 H   0  0  0  0  0  0  0  0  0  0  0  0
    4.2336    5.1384    0.7550 H   0  0  0  0  0  0  0  0  0  0  0  0
  1  2  1  0
  1 21  1  0
  1 22  1  0
  1 23  1  0
  2  3  1  0
  2 24  1  0
  2 25  1  0
  3  4  1  0
  3 26  1  0
  3 27  1  0
  4  5  1  0
  4 28  1  0
  4 29  1  0
  5  6  1  0
  5 30  1  0
  5 31  1  0
  6  7  2  0
  6 32  1  0
  7  8  1  0
  7 33  1  0
  8  9  2  0
  8 34  1  0
  9 10  1  0
  9 35  1  0
 10 11  1  0
 10 36  1  0
 10 37  1  0
 11 12  1  0
 11 38  1  0
 11 39  1  0
 12 13  1  0
 12 40  1  0
 12 41  1  0
 13 14  1  0
 13 42  1  0
 13 43  1  0
 14 15  1  0
 14 44  1  0
 14 45  1  0
 15 16  1  0
 15 46  1  0
 15 47  1  0
 16 17  1  0
 16 48  1  0
 16 49  1  0
 17 18  2  0
 17 19  1  0
 19 20  1  0
 20 50  1  0
 20 51  1  0
 20 52  1  0
M  END
$$$$
