FYI-1013827-3D
     RDKit          3D

112111  0  0  1  0  0  0  0  0999 V2000
   11.3149   17.7294  -13.7421 C   0  0  0  0  0  0  0  0  0  0  0  0
   10.4122   17.3282  -12.5891 C   0  0  0  0  0  0  0  0  0  0  0  0
   10.2149   15.8152  -12.5535 C   0  0  0  0  0  0  0  0  0  0  0  0
    9.3057   15.4116  -11.3953 C   0  0  0  0  0  0  0  0  0  0  0  0
    9.1094   13.8986  -11.3599 C   0  0  0  0  0  0  0  0  0  0  0  0
    8.2176   13.4918  -10.2269 C   0  0  0  0  0  0  0  0  0  0  0  0
    8.6307   12.6667   -9.2567 C   0  0  0  0  0  0  0  0  0  0  0  0
    7.7792   12.2734   -8.1665 C   0  0  0  0  0  0  0  0  0  0  0  0
    8.1819   11.4486   -7.1928 C   0  0  0  0  0  0  0  0  0  0  0  0
    7.2873   11.0421   -6.0613 C   0  0  0  0  0  0  0  0  0  0  0  0
    7.0910    9.5310   -6.0306 C   0  0  0  0  0  0  0  0  0  0  0  0
    6.1794    9.1280   -4.8755 C   0  0  0  0  0  0  0  0  0  0  0  0
    5.9873    7.6156   -4.8538 C   0  0  0  0  0  0  0  0  0  0  0  0
    5.0769    7.1982   -3.7053 C   0  0  0  0  0  0  0  0  0  0  0  0
    4.8887    5.6805   -3.6858 C   0  0  0  0  0  0  0  0  0  0  0  0
    3.9754    5.2742   -2.5327 C   0  0  0  0  0  0  0  0  0  0  0  0
    3.7451    3.7632   -2.4547 C   0  0  0  0  0  0  0  0  0  0  0  0
    2.8253    3.4480   -1.2857 C   0  0  0  0  0  0  0  0  0  0  0  0
    1.9533    4.1956   -0.8843 O   0  0  0  0  0  0  0  0  0  0  0  0
    3.1026    2.2116   -0.7639 O   0  0  0  0  0  0  0  0  0  0  0  0
    2.3009    1.8241    0.3857 C   0  0  0  0  0  0  0  0  0  0  0  0
    2.8011    2.4774    1.6887 C   0  0  1  0  0  0  0  0  0  0  0  0
    1.9233    2.0356    2.8667 C   0  0  0  0  0  0  0  0  0  0  0  0
    0.5717    2.4216    2.6532 O   0  0  0  0  0  0  0  0  0  0  0  0
    4.1734    2.1070    1.9528 O   0  0  0  0  0  0  0  0  0  0  0  0
    5.0498    3.1596    1.9813 C   0  0  0  0  0  0  0  0  0  0  0  0
    4.7399    4.3331    1.8644 O   0  0  0  0  0  0  0  0  0  0  0  0
    6.4696    2.7045    2.2599 C   0  0  0  0  0  0  0  0  0  0  0  0
    7.0030    3.3247    3.5514 C   0  0  0  0  0  0  0  0  0  0  0  0
    6.1748    2.9309    4.7721 C   0  0  0  0  0  0  0  0  0  0  0  0
    6.7404    3.5771    6.0338 C   0  0  0  0  0  0  0  0  0  0  0  0
    5.9155    3.1893    7.2541 C   0  0  0  0  0  0  0  0  0  0  0  0
    6.4787    3.8319    8.5161 C   0  0  0  0  0  0  0  0  0  0  0  0
    5.6458    3.4392    9.7309 C   0  0  0  0  0  0  0  0  0  0  0  0
    6.2014    4.0781   10.9976 C   0  0  0  0  0  0  0  0  0  0  0  0
    5.3846    3.6925   12.1922 C   0  0  0  0  0  0  0  0  0  0  0  0
    5.9088    3.0343   13.2357 C   0  0  0  0  0  0  0  0  0  0  0  0
    5.1375    2.6543   14.3904 C   0  0  0  0  0  0  0  0  0  0  0  0
    5.6677    1.9979   15.4283 C   0  0  0  0  0  0  0  0  0  0  0  0
    4.8566    1.6073   16.6286 C   0  0  0  0  0  0  0  0  0  0  0  0
    5.4130    2.2430   17.8998 C   0  0  0  0  0  0  0  0  0  0  0  0
    4.5817    1.8458   19.1169 C   0  0  0  0  0  0  0  0  0  0  0  0
    5.1382    2.4781   20.3897 C   0  0  0  0  0  0  0  0  0  0  0  0
    4.3089    2.0809   21.5983 C   0  0  0  0  0  0  0  0  0  0  0  0
   11.4501   18.8147  -13.7592 H   0  0  0  0  0  0  0  0  0  0  0  0
   10.8820   17.4226  -14.6996 H   0  0  0  0  0  0  0  0  0  0  0  0
   12.3001   17.2624  -13.6452 H   0  0  0  0  0  0  0  0  0  0  0  0
    9.4426   17.8288  -12.6943 H   0  0  0  0  0  0  0  0  0  0  0  0
   10.8533   17.6694  -11.6453 H   0  0  0  0  0  0  0  0  0  0  0  0
   11.1877   15.3185  -12.4509 H   0  0  0  0  0  0  0  0  0  0  0  0
    9.7785   15.4774  -13.5018 H   0  0  0  0  0  0  0  0  0  0  0  0
    8.3350   15.9117  -11.5005 H   0  0  0  0  0  0  0  0  0  0  0  0
    9.7442   15.7525  -10.4493 H   0  0  0  0  0  0  0  0  0  0  0  0
   10.0853   13.4073  -11.2638 H   0  0  0  0  0  0  0  0  0  0  0  0
    8.6670   13.5616  -12.3048 H   0  0  0  0  0  0  0  0  0  0  0  0
    7.2056   13.8929  -10.2166 H   0  0  0  0  0  0  0  0  0  0  0  0
    9.6435   12.2716   -9.2794 H   0  0  0  0  0  0  0  0  0  0  0  0
    6.7689   12.6740   -8.1530 H   0  0  0  0  0  0  0  0  0  0  0  0
    9.1928   11.0479   -7.2058 H   0  0  0  0  0  0  0  0  0  0  0  0
    6.3118   11.5344   -6.1600 H   0  0  0  0  0  0  0  0  0  0  0  0
    7.7278   11.3770   -5.1152 H   0  0  0  0  0  0  0  0  0  0  0  0
    8.0612    9.0304   -5.9223 H   0  0  0  0  0  0  0  0  0  0  0  0
    6.6567    9.1898   -6.9788 H   0  0  0  0  0  0  0  0  0  0  0  0
    5.2065    9.6248   -4.9770 H   0  0  0  0  0  0  0  0  0  0  0  0
    6.6146    9.4604   -3.9248 H   0  0  0  0  0  0  0  0  0  0  0  0
    6.9612    7.1220   -4.7508 H   0  0  0  0  0  0  0  0  0  0  0  0
    5.5549    7.2858   -5.8061 H   0  0  0  0  0  0  0  0  0  0  0  0
    4.1035    7.6937   -3.8089 H   0  0  0  0  0  0  0  0  0  0  0  0
    5.5080    7.5330   -2.7535 H   0  0  0  0  0  0  0  0  0  0  0  0
    5.8646    5.1915   -3.5816 H   0  0  0  0  0  0  0  0  0  0  0  0
    4.4584    5.3526   -4.6400 H   0  0  0  0  0  0  0  0  0  0  0  0
    3.0113    5.7847   -2.6461 H   0  0  0  0  0  0  0  0  0  0  0  0
    4.4085    5.6258   -1.5888 H   0  0  0  0  0  0  0  0  0  0  0  0
    4.7036    3.2507   -2.3170 H   0  0  0  0  0  0  0  0  0  0  0  0
    3.2841    3.4025   -3.3809 H   0  0  0  0  0  0  0  0  0  0  0  0
    2.3415    0.7325    0.4657 H   0  0  0  0  0  0  0  0  0  0  0  0
    1.2522    2.0970    0.1988 H   0  0  0  0  0  0  0  0  0  0  0  0
    2.7064    3.5607    1.5608 H   0  0  0  0  0  0  0  0  0  0  0  0
    2.2426    2.4798    3.8164 H   0  0  0  0  0  0  0  0  0  0  0  0
    1.9656    0.9483    2.9993 H   0  0  0  0  0  0  0  0  0  0  0  0
    0.5848    3.3880    2.5341 H   0  0  0  0  0  0  0  0  0  0  0  0
    7.0989    3.0127    1.4157 H   0  0  0  0  0  0  0  0  0  0  0  0
    6.5135    1.6122    2.3223 H   0  0  0  0  0  0  0  0  0  0  0  0
    7.0127    4.4173    3.4582 H   0  0  0  0  0  0  0  0  0  0  0  0
    8.0430    3.0105    3.7077 H   0  0  0  0  0  0  0  0  0  0  0  0
    6.1718    1.8396    4.8849 H   0  0  0  0  0  0  0  0  0  0  0  0
    5.1328    3.2460    4.6383 H   0  0  0  0  0  0  0  0  0  0  0  0
    6.7451    4.6685    5.9237 H   0  0  0  0  0  0  0  0  0  0  0  0
    7.7813    3.2633    6.1777 H   0  0  0  0  0  0  0  0  0  0  0  0
    5.9111    2.0979    7.3657 H   0  0  0  0  0  0  0  0  0  0  0  0
    4.8743    3.5050    7.1125 H   0  0  0  0  0  0  0  0  0  0  0  0
    6.4860    4.9232    8.4057 H   0  0  0  0  0  0  0  0  0  0  0  0
    7.5192    3.5141    8.6622 H   0  0  0  0  0  0  0  0  0  0  0  0
    5.6431    2.3467    9.8348 H   0  0  0  0  0  0  0  0  0  0  0  0
    4.6044    3.7519    9.5797 H   0  0  0  0  0  0  0  0  0  0  0  0
    6.1957    5.1707   10.8948 H   0  0  0  0  0  0  0  0  0  0  0  0
    7.2446    3.7695   11.1368 H   0  0  0  0  0  0  0  0  0  0  0  0
    4.3323    3.9632   12.1888 H   0  0  0  0  0  0  0  0  0  0  0  0
    6.9630    2.7698   13.2228 H   0  0  0  0  0  0  0  0  0  0  0  0
    4.0815    2.9183   14.4133 H   0  0  0  0  0  0  0  0  0  0  0  0
    6.7215    1.7232   15.4318 H   0  0  0  0  0  0  0  0  0  0  0  0
    4.8635    0.5154   16.7262 H   0  0  0  0  0  0  0  0  0  0  0  0
    3.8124    1.9155   16.4922 H   0  0  0  0  0  0  0  0  0  0  0  0
    5.4169    3.3356   17.7989 H   0  0  0  0  0  0  0  0  0  0  0  0
    6.4533    1.9286   18.0484 H   0  0  0  0  0  0  0  0  0  0  0  0
    4.5761    0.7535   19.2201 H   0  0  0  0  0  0  0  0  0  0  0  0
    3.5412    2.1623   18.9726 H   0  0  0  0  0  0  0  0  0  0  0  0
    5.1416    3.5703   20.2937 H   0  0  0  0  0  0  0  0  0  0  0  0
    6.1768    2.1618   20.5410 H   0  0  0  0  0  0  0  0  0  0  0  0
    3.2713    2.4099   21.4830 H   0  0  0  0  0  0  0  0  0  0  0  0
    4.7147    2.5386   22.5050 H   0  0  0  0  0  0  0  0  0  0  0  0
    4.3117    0.9945   21.7318 H   0  0  0  0  0  0  0  0  0  0  0  0
  1  2  1  0
  1 45  1  0
  1 46  1  0
  1 47  1  0
  2  3  1  0
  2 48  1  0
  2 49  1  0
  3  4  1  0
  3 50  1  0
  3 51  1  0
  4  5  1  0
  4 52  1  0
  4 53  1  0
  5  6  1  0
  5 54  1  0
  5 55  1  0
  6  7  2  0
  6 56  1  0
  7  8  1  0
  7 57  1  0
  8  9  2  0
  8 58  1  0
  9 10  1  0
  9 59  1  0
 10 11  1  0
 10 60  1  0
 10 61  1  0
 11 12  1  0
 11 62  1  0
 11 63  1  0
 12 13  1  0
 12 64  1  0
 12 65  1  0
 13 14  1  0
 13 66  1  0
 13 67  1  0
 14 15  1  0
 14 68  1  0
 14 69  1  0
 15 16  1  0
 15 70  1  0
 15 71  1  0
 16 17  1  0
 16 72  1  0
 16 73  1  0
 17 18  1  0
 17 74  1  0
 17 75  1  0
 18 19  2  0
 18 20  1  0
 20 21  1  0
 21 22  1  0
 21 76  1  0
 21 77  1  0
 22 23  1  0
 22 25  1  0
 22 78  1  6
 23 24  1  0
 23 79  1  0
 23 80  1  0
 24 81  1  0
 25 26  1  0
 26 27  2  0
 26 28  1  0
 28 29  1  0
 28 82  1  0
 28 83  1  0
 29 30  1  0
 29 84  1  0
 29 85  1  0
 30 31  1  0
 30 86  1  0
 30 87  1  0
 31 32  1  0
 31 88  1  0
 31 89  1  0
 32 33  1  0
 32 90  1  0
 32 91  1  0
 33 34  1  0
 33 92  1  0
 33 93  1  0
 34 35  1  0
 34 94  1  0
 34 95  1  0
 35 36  1  0
 35 96  1  0
 35 97  1  0
 36 37  2  0
 36 98  1  0
 37 38  1  0
 37 99  1  0
 38 39  2  0
 38100  1  0
 39 40  1  0
 39101  1  0
 40 41  1  0
 40102  1  0
 40103  1  0
 41 42  1  0
 41104  1  0
 41105  1  0
 42 43  1  0
 42106  1  0
 42107  1  0
 43 44  1  0
 43108  1  0
 43109  1  0
 44110  1  0
 44111  1  0
 44112  1  0
M  END
$$$$
