FYI-1013827-3D
     RDKit          3D

112111  0  0  1  0  0  0  0  0999 V2000
   14.0956   20.6018  -12.9149 C   0  0  0  0  0  0  0  0  0  0  0  0
   13.1992   20.2085  -11.7542 C   0  0  0  0  0  0  0  0  0  0  0  0
   12.9954   18.6966  -11.7123 C   0  0  0  0  0  0  0  0  0  0  0  0
   12.0925   18.3009  -10.5463 C   0  0  0  0  0  0  0  0  0  0  0  0
   11.8896   16.7889  -10.5045 C   0  0  0  0  0  0  0  0  0  0  0  0
   11.0040   16.3899   -9.3639 C   0  0  0  0  0  0  0  0  0  0  0  0
   11.4201   15.5661   -8.3939 C   0  0  0  0  0  0  0  0  0  0  0  0
   10.5746   15.1803   -7.2965 C   0  0  0  0  0  0  0  0  0  0  0  0
   10.9805   14.3569   -6.3229 C   0  0  0  0  0  0  0  0  0  0  0  0
   10.0920   13.9582   -5.1838 C   0  0  0  0  0  0  0  0  0  0  0  0
    9.8891   12.4481   -5.1467 C   0  0  0  0  0  0  0  0  0  0  0  0
    8.9838   12.0530   -3.9839 C   0  0  0  0  0  0  0  0  0  0  0  0
    8.7850   10.5416   -3.9558 C   0  0  0  0  0  0  0  0  0  0  0  0
    7.8809   10.1321   -2.7996 C   0  0  0  0  0  0  0  0  0  0  0  0
    7.6859    8.6154   -2.7738 C   0  0  0  0  0  0  0  0  0  0  0  0
    6.7789    8.2171   -1.6129 C   0  0  0  0  0  0  0  0  0  0  0  0
    6.5423    6.7074   -1.5283 C   0  0  0  0  0  0  0  0  0  0  0  0
    5.6293    6.4002   -0.3517 C   0  0  0  0  0  0  0  0  0  0  0  0
    4.7637    7.1531    0.0532 O   0  0  0  0  0  0  0  0  0  0  0  0
    5.9048    5.1642    0.1721 O   0  0  0  0  0  0  0  0  0  0  0  0
    5.1094    4.7842    1.3287 C   0  0  0  0  0  0  0  0  0  0  0  0
    5.6217    5.4395    2.6259 C   0  0  1  0  0  0  0  0  0  0  0  0
    4.7503    5.0056    3.8116 C   0  0  0  0  0  0  0  0  0  0  0  0
    3.3990    5.3971    3.6062 O   0  0  0  0  0  0  0  0  0  0  0  0
    6.9942    5.0637    2.8816 O   0  0  0  0  0  0  0  0  0  0  0  0
    7.8755    6.1124    2.9004 C   0  0  0  0  0  0  0  0  0  0  0  0
    7.5701    7.2868    2.7818 O   0  0  0  0  0  0  0  0  0  0  0  0
    9.2951    5.6518    3.1705 C   0  0  0  0  0  0  0  0  0  0  0  0
    9.8405    6.2737    4.4562 C   0  0  0  0  0  0  0  0  0  0  0  0
    9.0192    5.8877    5.6839 C   0  0  0  0  0  0  0  0  0  0  0  0
    9.5966    6.5354    6.9395 C   0  0  0  0  0  0  0  0  0  0  0  0
    8.7785    6.1554    8.1669 C   0  0  0  0  0  0  0  0  0  0  0  0
    9.3535    6.7996    9.4227 C   0  0  0  0  0  0  0  0  0  0  0  0
    8.5274    6.4147   10.6446 C   0  0  0  0  0  0  0  0  0  0  0  0
    9.0949    7.0552   11.9053 C   0  0  0  0  0  0  0  0  0  0  0  0
    8.2848    6.6772   13.1069 C   0  0  0  0  0  0  0  0  0  0  0  0
    8.8134    6.0201   14.1489 C   0  0  0  0  0  0  0  0  0  0  0  0
    8.0485    5.6473   15.3102 C   0  0  0  0  0  0  0  0  0  0  0  0
    8.5830    4.9920   16.3465 C   0  0  0  0  0  0  0  0  0  0  0  0
    7.7786    4.6090   17.5538 C   0  0  0  0  0  0  0  0  0  0  0  0
    8.3469    5.2463   18.8189 C   0  0  0  0  0  0  0  0  0  0  0  0
    7.5224    4.8569   20.0431 C   0  0  0  0  0  0  0  0  0  0  0  0
    8.0907    5.4909   21.3099 C   0  0  0  0  0  0  0  0  0  0  0  0
    7.2681    5.1014   22.5256 C   0  0  0  0  0  0  0  0  0  0  0  0
   14.2356   21.6864  -12.9365 H   0  0  0  0  0  0  0  0  0  0  0  0
   13.6546   20.2939  -13.8683 H   0  0  0  0  0  0  0  0  0  0  0  0
   15.0793   20.1306  -12.8234 H   0  0  0  0  0  0  0  0  0  0  0  0
   12.2312   20.7132  -11.8543 H   0  0  0  0  0  0  0  0  0  0  0  0
   13.6486   20.5508  -10.8147 H   0  0  0  0  0  0  0  0  0  0  0  0
   13.9666   18.1958  -11.6148 H   0  0  0  0  0  0  0  0  0  0  0  0
   12.5508   18.3576  -12.6563 H   0  0  0  0  0  0  0  0  0  0  0  0
   11.1234   18.8051  -10.6463 H   0  0  0  0  0  0  0  0  0  0  0  0
   12.5392   18.6429   -9.6045 H   0  0  0  0  0  0  0  0  0  0  0  0
   12.8639   16.2935  -10.4137 H   0  0  0  0  0  0  0  0  0  0  0  0
   11.4391   16.4508  -11.4452 H   0  0  0  0  0  0  0  0  0  0  0  0
    9.9940   16.7957   -9.3478 H   0  0  0  0  0  0  0  0  0  0  0  0
   12.4310   15.1664   -8.4225 H   0  0  0  0  0  0  0  0  0  0  0  0
    9.5663   15.5855   -7.2772 H   0  0  0  0  0  0  0  0  0  0  0  0
   11.9894   13.9515   -6.3417 H   0  0  0  0  0  0  0  0  0  0  0  0
    9.1180   14.4546   -5.2773 H   0  0  0  0  0  0  0  0  0  0  0  0
   10.5407   14.2941   -4.2419 H   0  0  0  0  0  0  0  0  0  0  0  0
   10.8578   11.9435   -5.0436 H   0  0  0  0  0  0  0  0  0  0  0  0
    9.4465   12.1058   -6.0907 H   0  0  0  0  0  0  0  0  0  0  0  0
    8.0124   12.5540   -4.0802 H   0  0  0  0  0  0  0  0  0  0  0  0
    9.4272   12.3866   -3.0374 H   0  0  0  0  0  0  0  0  0  0  0  0
    9.7573   10.0439   -3.8581 H   0  0  0  0  0  0  0  0  0  0  0  0
    8.3444   10.2107   -4.9040 H   0  0  0  0  0  0  0  0  0  0  0  0
    6.9090   10.6318   -2.8980 H   0  0  0  0  0  0  0  0  0  0  0  0
    8.3202   10.4681   -1.8519 H   0  0  0  0  0  0  0  0  0  0  0  0
    8.6602    8.1223   -2.6748 H   0  0  0  0  0  0  0  0  0  0  0  0
    7.2473    8.2864   -3.7238 H   0  0  0  0  0  0  0  0  0  0  0  0
    5.8164    8.7315   -1.7211 H   0  0  0  0  0  0  0  0  0  0  0  0
    7.2203    8.5698   -0.6733 H   0  0  0  0  0  0  0  0  0  0  0  0
    7.4994    6.1909   -1.3956 H   0  0  0  0  0  0  0  0  0  0  0  0
    6.0732    6.3458   -2.4500 H   0  0  0  0  0  0  0  0  0  0  0  0
    5.1456    3.6927    1.4119 H   0  0  0  0  0  0  0  0  0  0  0  0
    4.0606    5.0613    1.1482 H   0  0  0  0  0  0  0  0  0  0  0  0
    5.5310    6.5228    2.4951 H   0  0  0  0  0  0  0  0  0  0  0  0
    5.0783    5.4514    4.7574 H   0  0  0  0  0  0  0  0  0  0  0  0
    4.7885    3.9186    3.9475 H   0  0  0  0  0  0  0  0  0  0  0  0
    3.4156    6.3630    3.4839 H   0  0  0  0  0  0  0  0  0  0  0  0
    9.9199    5.9543    2.3209 H   0  0  0  0  0  0  0  0  0  0  0  0
    9.3346    4.5594    3.2362 H   0  0  0  0  0  0  0  0  0  0  0  0
    9.8545    7.3659    4.3593 H   0  0  0  0  0  0  0  0  0  0  0  0
   10.8801    5.9553    4.6062 H   0  0  0  0  0  0  0  0  0  0  0  0
    9.0120    4.7968    5.8004 H   0  0  0  0  0  0  0  0  0  0  0  0
    7.9777    6.2071    5.5565 H   0  0  0  0  0  0  0  0  0  0  0  0
    9.6055    7.6265    6.8258 H   0  0  0  0  0  0  0  0  0  0  0  0
   10.6370    6.2174    7.0771 H   0  0  0  0  0  0  0  0  0  0  0  0
    8.7699    5.0644    8.2821 H   0  0  0  0  0  0  0  0  0  0  0  0
    7.7378    6.4754    8.0315 H   0  0  0  0  0  0  0  0  0  0  0  0
    9.3650    7.8905    9.3086 H   0  0  0  0  0  0  0  0  0  0  0  0
   10.3936    6.4775    9.5625 H   0  0  0  0  0  0  0  0  0  0  0  0
    8.5205    5.3225   10.7521 H   0  0  0  0  0  0  0  0  0  0  0  0
    7.4864    6.7316   10.4998 H   0  0  0  0  0  0  0  0  0  0  0  0
    9.0934    8.1474   11.7989 H   0  0  0  0  0  0  0  0  0  0  0  0
   10.1376    6.7422   12.0381 H   0  0  0  0  0  0  0  0  0  0  0  0
    7.2337    6.9527   13.1100 H   0  0  0  0  0  0  0  0  0  0  0  0
    9.8662    5.7507   14.1294 H   0  0  0  0  0  0  0  0  0  0  0  0
    6.9939    5.9162   15.3397 H   0  0  0  0  0  0  0  0  0  0  0  0
    9.6355    4.7124   16.3435 H   0  0  0  0  0  0  0  0  0  0  0  0
    7.7813    3.5174   17.6550 H   0  0  0  0  0  0  0  0  0  0  0  0
    6.7349    4.9215   17.4237 H   0  0  0  0  0  0  0  0  0  0  0  0
    8.3550    6.3385   18.7144 H   0  0  0  0  0  0  0  0  0  0  0  0
    9.3868    4.9277   18.9612 H   0  0  0  0  0  0  0  0  0  0  0  0
    7.5125    3.7650   20.1500 H   0  0  0  0  0  0  0  0  0  0  0  0
    6.4824    5.1777   19.9051 H   0  0  0  0  0  0  0  0  0  0  0  0
    8.0984    6.5827   21.2102 H   0  0  0  0  0  0  0  0  0  0  0  0
    9.1289    5.1703   21.4549 H   0  0  0  0  0  0  0  0  0  0  0  0
    6.2312    5.4348   22.4166 H   0  0  0  0  0  0  0  0  0  0  0  0
    7.6825    5.5602   23.4279 H   0  0  0  0  0  0  0  0  0  0  0  0
    7.2670    4.0154   22.6627 H   0  0  0  0  0  0  0  0  0  0  0  0
  1  2  1  0
  1 45  1  0
  1 46  1  0
  1 47  1  0
  2  3  1  0
  2 48  1  0
  2 49  1  0
  3  4  1  0
  3 50  1  0
  3 51  1  0
  4  5  1  0
  4 52  1  0
  4 53  1  0
  5  6  1  0
  5 54  1  0
  5 55  1  0
  6  7  2  0
  6 56  1  0
  7  8  1  0
  7 57  1  0
  8  9  2  0
  8 58  1  0
  9 10  1  0
  9 59  1  0
 10 11  1  0
 10 60  1  0
 10 61  1  0
 11 12  1  0
 11 62  1  0
 11 63  1  0
 12 13  1  0
 12 64  1  0
 12 65  1  0
 13 14  1  0
 13 66  1  0
 13 67  1  0
 14 15  1  0
 14 68  1  0
 14 69  1  0
 15 16  1  0
 15 70  1  0
 15 71  1  0
 16 17  1  0
 16 72  1  0
 16 73  1  0
 17 18  1  0
 17 74  1  0
 17 75  1  0
 18 19  2  0
 18 20  1  0
 20 21  1  0
 21 22  1  0
 21 76  1  0
 21 77  1  0
 22 23  1  0
 22 25  1  0
 22 78  1  6
 23 24  1  0
 23 79  1  0
 23 80  1  0
 24 81  1  0
 25 26  1  0
 26 27  2  0
 26 28  1  0
 28 29  1  0
 28 82  1  0
 28 83  1  0
 29 30  1  0
 29 84  1  0
 29 85  1  0
 30 31  1  0
 30 86  1  0
 30 87  1  0
 31 32  1  0
 31 88  1  0
 31 89  1  0
 32 33  1  0
 32 90  1  0
 32 91  1  0
 33 34  1  0
 33 92  1  0
 33 93  1  0
 34 35  1  0
 34 94  1  0
 34 95  1  0
 35 36  1  0
 35 96  1  0
 35 97  1  0
 36 37  2  0
 36 98  1  0
 37 38  1  0
 37 99  1  0
 38 39  2  0
 38100  1  0
 39 40  1  0
 39101  1  0
 40 41  1  0
 40102  1  0
 40103  1  0
 41 42  1  0
 41104  1  0
 41105  1  0
 42 43  1  0
 42106  1  0
 42107  1  0
 43 44  1  0
 43108  1  0
 43109  1  0
 44110  1  0
 44111  1  0
 44112  1  0
M  END
$$$$
