FYI-1013826-3D
     RDKit          3D

158157  0  0  1  0  0  0  0  0999 V2000
  -16.0218  -16.4482   18.3111 C   0  0  0  0  0  0  0  0  0  0  0  0
  -14.5868  -16.4100   17.8181 C   0  0  0  0  0  0  0  0  0  0  0  0
  -14.5215  -15.8998   16.3822 C   0  0  0  0  0  0  0  0  0  0  0  0
  -13.0791  -15.8587   15.8854 C   0  0  0  0  0  0  0  0  0  0  0  0
  -13.0170  -15.3455   14.4492 C   0  0  0  0  0  0  0  0  0  0  0  0
  -11.6016  -15.3008   13.9551 C   0  0  0  0  0  0  0  0  0  0  0  0
  -11.0158  -14.1677   13.5529 C   0  0  0  0  0  0  0  0  0  0  0  0
   -9.6596  -14.1103   13.0816 C   0  0  0  0  0  0  0  0  0  0  0  0
   -9.0688  -12.9795   12.6801 C   0  0  0  0  0  0  0  0  0  0  0  0
   -7.6535  -12.9321   12.1872 C   0  0  0  0  0  0  0  0  0  0  0  0
   -7.5965  -12.4226   10.7525 C   0  0  0  0  0  0  0  0  0  0  0  0
   -6.1560  -12.3841   10.2568 C   0  0  0  0  0  0  0  0  0  0  0  0
   -6.1033  -11.8775    8.8226 C   0  0  0  0  0  0  0  0  0  0  0  0
   -4.6660  -11.8390    8.3238 C   0  0  0  0  0  0  0  0  0  0  0  0
   -4.6167  -11.3312    6.8902 C   0  0  0  0  0  0  0  0  0  0  0  0
   -3.1745  -11.2770    6.3930 C   0  0  0  0  0  0  0  0  0  0  0  0
   -3.0872  -10.7568    4.9644 C   0  0  0  0  0  0  0  0  0  0  0  0
   -3.6622   -9.3672    4.8327 C   0  0  0  0  0  0  0  0  0  0  0  0
   -4.6212   -9.0969    4.1205 O   0  0  0  0  0  0  0  0  0  0  0  0
   -2.9825   -8.4744    5.6012 O   0  0  0  0  0  0  0  0  0  0  0  0
   -3.4842   -7.1296    5.5506 C   0  0  0  0  0  0  0  0  0  0  0  0
   -2.9749   -6.4137    4.2941 C   0  0  1  0  0  0  0  0  0  0  0  0
   -3.5062   -4.9705    4.2860 C   0  0  0  0  0  0  0  0  0  0  0  0
   -4.9545   -4.9351    4.2895 O   0  0  0  0  0  0  0  0  0  0  0  0
   -5.5829   -4.3065    5.3268 C   0  0  0  0  0  0  0  0  0  0  0  0
   -5.0230   -3.7755    6.2735 O   0  0  0  0  0  0  0  0  0  0  0  0
   -7.0794   -4.3183    5.1699 C   0  0  0  0  0  0  0  0  0  0  0  0
   -7.5849   -2.8822    5.1288 C   0  0  0  0  0  0  0  0  0  0  0  0
   -9.1031   -2.8136    5.0141 C   0  0  0  0  0  0  0  0  0  0  0  0
   -9.5683   -1.3601    4.9713 C   0  0  0  0  0  0  0  0  0  0  0  0
  -11.0855   -1.2812    4.8546 C   0  0  0  0  0  0  0  0  0  0  0  0
  -11.5474    0.1725    4.8081 C   0  0  0  0  0  0  0  0  0  0  0  0
  -13.0664    0.2497    4.6880 C   0  0  0  0  0  0  0  0  0  0  0  0
  -13.5355    1.6728    4.6366 C   0  0  0  0  0  0  0  0  0  0  0  0
  -14.2168    2.1722    3.5969 C   0  0  0  0  0  0  0  0  0  0  0  0
  -14.6620    3.5399    3.5547 C   0  0  0  0  0  0  0  0  0  0  0  0
  -15.3409    4.0430    2.5154 C   0  0  0  0  0  0  0  0  0  0  0  0
  -15.8110    5.4679    2.4646 C   0  0  0  0  0  0  0  0  0  0  0  0
  -17.3286    5.5399    2.3455 C   0  0  0  0  0  0  0  0  0  0  0  0
  -17.7943    6.9921    2.2962 C   0  0  0  0  0  0  0  0  0  0  0  0
  -19.3126    7.0720    2.1745 C   0  0  0  0  0  0  0  0  0  0  0  0
  -19.7733    8.5175    2.1253 C   0  0  0  0  0  0  0  0  0  0  0  0
   -1.5136   -6.4040    4.2776 O   0  0  0  0  0  0  0  0  0  0  0  0
   -0.9037   -7.0185    3.2320 C   0  0  0  0  0  0  0  0  0  0  0  0
   -1.4416   -7.5564    2.2666 O   0  0  0  0  0  0  0  0  0  0  0  0
    0.6100   -6.9417    3.3242 C   0  0  0  0  0  0  0  0  0  0  0  0
    1.1918   -6.2305    2.1038 C   0  0  0  0  0  0  0  0  0  0  0  0
    0.7139   -4.7848    2.0187 C   0  0  0  0  0  0  0  0  0  0  0  0
    1.2965   -4.0923    0.7950 C   0  0  0  0  0  0  0  0  0  0  0  0
    0.8026   -2.6542    0.7216 C   0  0  0  0  0  0  0  0  0  0  0  0
    1.3818   -1.9508   -0.4974 C   0  0  0  0  0  0  0  0  0  0  0  0
    0.8857   -0.5111   -0.5643 C   0  0  0  0  0  0  0  0  0  0  0  0
    1.4632    0.1967   -1.7844 C   0  0  0  0  0  0  0  0  0  0  0  0
    0.9820    1.6133   -1.8610 C   0  0  0  0  0  0  0  0  0  0  0  0
    0.2782    2.0823   -2.9010 C   0  0  0  0  0  0  0  0  0  0  0  0
   -0.1931    3.4393   -2.9782 C   0  0  0  0  0  0  0  0  0  0  0  0
   -0.8948    3.9062   -4.0208 C   0  0  0  0  0  0  0  0  0  0  0  0
   -1.3862    5.3209   -4.0950 C   0  0  0  0  0  0  0  0  0  0  0  0
   -2.9075    5.3685   -4.1985 C   0  0  0  0  0  0  0  0  0  0  0  0
   -3.3969    6.8118   -4.2710 C   0  0  0  0  0  0  0  0  0  0  0  0
   -4.9173    6.8642   -4.3761 C   0  0  0  0  0  0  0  0  0  0  0  0
   -5.4024    8.3005   -4.4485 C   0  0  0  0  0  0  0  0  0  0  0  0
  -16.0605  -16.8149   19.3407 H   0  0  0  0  0  0  0  0  0  0  0  0
  -16.6291  -17.1115   17.6869 H   0  0  0  0  0  0  0  0  0  0  0  0
  -16.4678  -15.4489   18.2852 H   0  0  0  0  0  0  0  0  0  0  0  0
  -14.1535  -17.4153   17.8772 H   0  0  0  0  0  0  0  0  0  0  0  0
  -13.9932  -15.7609   18.4725 H   0  0  0  0  0  0  0  0  0  0  0  0
  -14.9610  -14.8961   16.3264 H   0  0  0  0  0  0  0  0  0  0  0  0
  -15.1188  -16.5499   15.7310 H   0  0  0  0  0  0  0  0  0  0  0  0
  -12.6422  -16.8636   15.9449 H   0  0  0  0  0  0  0  0  0  0  0  0
  -12.4841  -15.2094   16.5402 H   0  0  0  0  0  0  0  0  0  0  0  0
  -13.4765  -14.3513   14.3974 H   0  0  0  0  0  0  0  0  0  0  0  0
  -13.6001  -16.0018   13.7925 H   0  0  0  0  0  0  0  0  0  0  0  0
  -11.0646  -16.2463   13.9353 H   0  0  0  0  0  0  0  0  0  0  0  0
  -11.5785  -13.2323   13.5793 H   0  0  0  0  0  0  0  0  0  0  0  0
   -9.1012  -15.0464   13.0559 H   0  0  0  0  0  0  0  0  0  0  0  0
   -9.6153  -12.0370   12.7020 H   0  0  0  0  0  0  0  0  0  0  0  0
   -7.1951  -13.9272   12.2385 H   0  0  0  0  0  0  0  0  0  0  0  0
   -7.0693  -12.2760   12.8423 H   0  0  0  0  0  0  0  0  0  0  0  0
   -8.0328  -11.4175   10.6911 H   0  0  0  0  0  0  0  0  0  0  0  0
   -8.1922  -13.0723   10.0983 H   0  0  0  0  0  0  0  0  0  0  0  0
   -5.7151  -13.3872   10.3112 H   0  0  0  0  0  0  0  0  0  0  0  0
   -5.5564  -11.7314   10.9032 H   0  0  0  0  0  0  0  0  0  0  0  0
   -6.5430  -10.8739    8.7675 H   0  0  0  0  0  0  0  0  0  0  0  0
   -6.7026  -12.5297    8.1757 H   0  0  0  0  0  0  0  0  0  0  0  0
   -4.2253  -12.8415    8.3789 H   0  0  0  0  0  0  0  0  0  0  0  0
   -4.0679  -11.1842    8.9697 H   0  0  0  0  0  0  0  0  0  0  0  0
   -5.0716  -10.3343    6.8489 H   0  0  0  0  0  0  0  0  0  0  0  0
   -5.2129  -11.9845    6.2411 H   0  0  0  0  0  0  0  0  0  0  0  0
   -2.7360  -12.2810    6.4373 H   0  0  0  0  0  0  0  0  0  0  0  0
   -2.5811  -10.6389    7.0579 H   0  0  0  0  0  0  0  0  0  0  0  0
   -3.6410  -11.4215    4.2910 H   0  0  0  0  0  0  0  0  0  0  0  0
   -2.0481  -10.7466    4.6199 H   0  0  0  0  0  0  0  0  0  0  0  0
   -3.1408   -6.6193    6.4576 H   0  0  0  0  0  0  0  0  0  0  0  0
   -4.5811   -7.1358    5.5899 H   0  0  0  0  0  0  0  0  0  0  0  0
   -3.3603   -6.9342    3.4130 H   0  0  0  0  0  0  0  0  0  0  0  0
   -3.1654   -4.4478    3.3818 H   0  0  0  0  0  0  0  0  0  0  0  0
   -3.0950   -4.4091    5.1333 H   0  0  0  0  0  0  0  0  0  0  0  0
   -7.5023   -4.8577    6.0218 H   0  0  0  0  0  0  0  0  0  0  0  0
   -7.3757   -4.8587    4.2598 H   0  0  0  0  0  0  0  0  0  0  0  0
   -7.1257   -2.3535    4.2827 H   0  0  0  0  0  0  0  0  0  0  0  0
   -7.2682   -2.3491    6.0354 H   0  0  0  0  0  0  0  0  0  0  0  0
   -9.5656   -3.3229    5.8682 H   0  0  0  0  0  0  0  0  0  0  0  0
   -9.4318   -3.3333    4.1069 H   0  0  0  0  0  0  0  0  0  0  0  0
   -9.1051   -0.8479    4.1190 H   0  0  0  0  0  0  0  0  0  0  0  0
   -9.2403   -0.8376    5.8786 H   0  0  0  0  0  0  0  0  0  0  0  0
  -11.5485   -1.7912    5.7083 H   0  0  0  0  0  0  0  0  0  0  0  0
  -11.4129   -1.8048    3.9479 H   0  0  0  0  0  0  0  0  0  0  0  0
  -11.0774    0.6796    3.9557 H   0  0  0  0  0  0  0  0  0  0  0  0
  -11.2144    0.6925    5.7153 H   0  0  0  0  0  0  0  0  0  0  0  0
  -13.5340   -0.2464    5.5463 H   0  0  0  0  0  0  0  0  0  0  0  0
  -13.3872   -0.2939    3.7907 H   0  0  0  0  0  0  0  0  0  0  0  0
  -13.3015    2.3054    5.4893 H   0  0  0  0  0  0  0  0  0  0  0  0
  -14.4499    1.5415    2.7478 H   0  0  0  0  0  0  0  0  0  0  0  0
  -14.4219    4.1660    4.4089 H   0  0  0  0  0  0  0  0  0  0  0  0
  -15.5716    3.4111    1.6633 H   0  0  0  0  0  0  0  0  0  0  0  0
  -15.3415    5.9614    1.6095 H   0  0  0  0  0  0  0  0  0  0  0  0
  -15.4884    6.0085    3.3639 H   0  0  0  0  0  0  0  0  0  0  0  0
  -17.7972    5.0334    3.1987 H   0  0  0  0  0  0  0  0  0  0  0  0
  -17.6601    5.0174    1.4390 H   0  0  0  0  0  0  0  0  0  0  0  0
  -17.3278    7.5019    1.4441 H   0  0  0  0  0  0  0  0  0  0  0  0
  -17.4684    7.5166    3.2032 H   0  0  0  0  0  0  0  0  0  0  0  0
  -19.7827    6.5679    3.0270 H   0  0  0  0  0  0  0  0  0  0  0  0
  -19.6422    6.5528    1.2670 H   0  0  0  0  0  0  0  0  0  0  0  0
  -19.4769    9.0505    3.0344 H   0  0  0  0  0  0  0  0  0  0  0  0
  -20.8623    8.5667    2.0378 H   0  0  0  0  0  0  0  0  0  0  0  0
  -19.3356    9.0352    1.2658 H   0  0  0  0  0  0  0  0  0  0  0  0
    0.9867   -7.9718    3.3557 H   0  0  0  0  0  0  0  0  0  0  0  0
    0.9287   -6.4540    4.2480 H   0  0  0  0  0  0  0  0  0  0  0  0
    0.9088   -6.7626    1.1859 H   0  0  0  0  0  0  0  0  0  0  0  0
    2.2873   -6.2525    2.1549 H   0  0  0  0  0  0  0  0  0  0  0  0
    1.0055   -4.2457    2.9279 H   0  0  0  0  0  0  0  0  0  0  0  0
   -0.3806   -4.7513    1.9596 H   0  0  0  0  0  0  0  0  0  0  0  0
    1.0024   -4.6314   -0.1141 H   0  0  0  0  0  0  0  0  0  0  0  0
    2.3917   -4.1084    0.8430 H   0  0  0  0  0  0  0  0  0  0  0  0
    1.0922   -2.1166    1.6329 H   0  0  0  0  0  0  0  0  0  0  0  0
   -0.2933   -2.6400    0.6720 H   0  0  0  0  0  0  0  0  0  0  0  0
    1.0913   -2.4889   -1.4082 H   0  0  0  0  0  0  0  0  0  0  0  0
    2.4775   -1.9661   -0.4478 H   0  0  0  0  0  0  0  0  0  0  0  0
    1.1746    0.0193    0.3520 H   0  0  0  0  0  0  0  0  0  0  0  0
   -0.2110   -0.5027   -0.6087 H   0  0  0  0  0  0  0  0  0  0  0  0
    1.1862   -0.3558   -2.6905 H   0  0  0  0  0  0  0  0  0  0  0  0
    2.5580    0.1979   -1.7322 H   0  0  0  0  0  0  0  0  0  0  0  0
    1.2249    2.2610   -1.0213 H   0  0  0  0  0  0  0  0  0  0  0  0
    0.0412    1.4157   -3.7273 H   0  0  0  0  0  0  0  0  0  0  0  0
    0.0323    4.1028   -2.1453 H   0  0  0  0  0  0  0  0  0  0  0  0
   -1.1349    3.2586   -4.8622 H   0  0  0  0  0  0  0  0  0  0  0  0
   -0.9353    5.8058   -4.9685 H   0  0  0  0  0  0  0  0  0  0  0  0
   -1.0633    5.8874   -3.2129 H   0  0  0  0  0  0  0  0  0  0  0  0
   -3.3575    4.8716   -3.3295 H   0  0  0  0  0  0  0  0  0  0  0  0
   -3.2404    4.8226   -5.0902 H   0  0  0  0  0  0  0  0  0  0  0  0
   -2.9484    7.3114   -5.1387 H   0  0  0  0  0  0  0  0  0  0  0  0
   -3.0687    7.3595   -3.3787 H   0  0  0  0  0  0  0  0  0  0  0  0
   -5.3688    6.3696   -3.5081 H   0  0  0  0  0  0  0  0  0  0  0  0
   -5.2486    6.3213   -5.2690 H   0  0  0  0  0  0  0  0  0  0  0  0
   -5.1043    8.8564   -3.5539 H   0  0  0  0  0  0  0  0  0  0  0  0
   -6.4930    8.3300   -4.5238 H   0  0  0  0  0  0  0  0  0  0  0  0
   -4.9834    8.8079   -5.3234 H   0  0  0  0  0  0  0  0  0  0  0  0
  1  2  1  0
  1 63  1  0
  1 64  1  0
  1 65  1  0
  2  3  1  0
  2 66  1  0
  2 67  1  0
  3  4  1  0
  3 68  1  0
  3 69  1  0
  4  5  1  0
  4 70  1  0
  4 71  1  0
  5  6  1  0
  5 72  1  0
  5 73  1  0
  6  7  2  0
  6 74  1  0
  7  8  1  0
  7 75  1  0
  8  9  2  0
  8 76  1  0
  9 10  1  0
  9 77  1  0
 10 11  1  0
 10 78  1  0
 10 79  1  0
 11 12  1  0
 11 80  1  0
 11 81  1  0
 12 13  1  0
 12 82  1  0
 12 83  1  0
 13 14  1  0
 13 84  1  0
 13 85  1  0
 14 15  1  0
 14 86  1  0
 14 87  1  0
 15 16  1  0
 15 88  1  0
 15 89  1  0
 16 17  1  0
 16 90  1  0
 16 91  1  0
 17 18  1  0
 17 92  1  0
 17 93  1  0
 18 19  2  0
 18 20  1  0
 20 21  1  0
 21 22  1  0
 21 94  1  0
 21 95  1  0
 22 23  1  0
 22 43  1  0
 22 96  1  6
 23 24  1  0
 23 97  1  0
 23 98  1  0
 24 25  1  0
 25 26  2  0
 25 27  1  0
 27 28  1  0
 27 99  1  0
 27100  1  0
 28 29  1  0
 28101  1  0
 28102  1  0
 29 30  1  0
 29103  1  0
 29104  1  0
 30 31  1  0
 30105  1  0
 30106  1  0
 31 32  1  0
 31107  1  0
 31108  1  0
 32 33  1  0
 32109  1  0
 32110  1  0
 33 34  1  0
 33111  1  0
 33112  1  0
 34 35  2  0
 34113  1  0
 35 36  1  0
 35114  1  0
 36 37  2  0
 36115  1  0
 37 38  1  0
 37116  1  0
 38 39  1  0
 38117  1  0
 38118  1  0
 39 40  1  0
 39119  1  0
 39120  1  0
 40 41  1  0
 40121  1  0
 40122  1  0
 41 42  1  0
 41123  1  0
 41124  1  0
 42125  1  0
 42126  1  0
 42127  1  0
 43 44  1  0
 44 45  2  0
 44 46  1  0
 46 47  1  0
 46128  1  0
 46129  1  0
 47 48  1  0
 47130  1  0
 47131  1  0
 48 49  1  0
 48132  1  0
 48133  1  0
 49 50  1  0
 49134  1  0
 49135  1  0
 50 51  1  0
 50136  1  0
 50137  1  0
 51 52  1  0
 51138  1  0
 51139  1  0
 52 53  1  0
 52140  1  0
 52141  1  0
 53 54  1  0
 53142  1  0
 53143  1  0
 54 55  2  0
 54144  1  0
 55 56  1  0
 55145  1  0
 56 57  2  0
 56146  1  0
 57 58  1  0
 57147  1  0
 58 59  1  0
 58148  1  0
 58149  1  0
 59 60  1  0
 59150  1  0
 59151  1  0
 60 61  1  0
 60152  1  0
 60153  1  0
 61 62  1  0
 61154  1  0
 61155  1  0
 62156  1  0
 62157  1  0
 62158  1  0
M  END
$$$$
